
No compatibility mode selected!


Circuit: * /home/inderjitsingh/esim_mixed_signal_marathon_2022/digital_sine_wave/digital_sine_wave.cir

Reducing trtol to 1 for xspice 'A' devices
Doing analysis at TEMP = 27.000000 and TNOM = 27.000000

Warning: v2: no DC value, transient time 0 value used
Warning: v1: no DC value, transient time 0 value used
=============inderjit_prs8bit_generator : New Iteration===========
Instance : 0

Inside foo before eval.....
clk=0
rst=0
out=0

Inside foo after eval.....
clk=0
rst=0
out=0
=============inderjit_digi_sinewave_generator : New Iteration===========
Instance : 0

Inside foo before eval.....
clk=0
dsine=0
data_out=0

Inside foo after eval.....
clk=0
dsine=0
data_out=0
=============inderjit_digi_sinewave_generator : New Iteration===========
Instance : 0

Inside foo before eval.....
clk=0
dsine=0
data_out=0

Inside foo after eval.....
clk=0
dsine=0
data_out=0
=============inderjit_prs8bit_generator : New Iteration===========
Instance : 0

Inside foo before eval.....
clk=0
rst=0
out=0

Inside foo after eval.....
clk=0
rst=0
out=0

Initial Transient Solution
--------------------------

Node                                   Voltage
----                                   -------
clk                                          0
reset                                        0
dac_out                                      0
net-_l1-pad1_                                0
analog_out                                   0
x1.net-_r1-pad1_                             0
x1.net-_r1-pad2_                             0
x1.net-_r2-pad1_                             0
x1.net-_r3-pad1_                             0
x1.net-_r4-pad1_                             0
x1.net-_r5-pad1_                             0
x1.net-_r6-pad1_                             0
x1.net-_r7-pad1_                             0
x1.net-_r9-pad1_                             0
x1.net-_r10-pad1_                            0
x1.net-_r11-pad1_                            0
net-_u6-pad16_                               0
net-_u6-pad15_                               0
net-_u6-pad14_                               0
net-_u6-pad13_                               0
net-_u6-pad12_                               0
net-_u6-pad11_                               0
net-_u6-pad10_                               0
net-_u6-pad9_                                0
l1#branch                                    0
v2#branch                                    0
v1#branch                                    0
a.x1.a11#branch_1_0                          0
a.x1.a10#branch_1_0                          0
a.x1.a9#branch_1_0                           0
a.x1.a8#branch_1_0                           0
a.x1.a7#branch_1_0                           0
a.x1.a6#branch_1_0                           0
a.x1.a5#branch_1_0                           0
a.x1.a4#branch_1_0                           0
a.x1.a3#branch_1_0                           0
a.x1.a2#branch_1_0                           0
a.x1.a1#branch_1_0                           0
a4#branch_1_0                                0
a4#branch_1_1                                0
a4#branch_1_2                                0
a4#branch_1_3                                0
a4#branch_1_4                                0
a4#branch_1_5                                0
a4#branch_1_6                                0
a4#branch_1_7                                0

=============inderjit_prs8bit_generator : New Iteration===========
Instance : 0

Inside foo before eval.....
clk=0
rst=0
out=0

Inside foo after eval.....
clk=0
rst=1
out=0
=============inderjit_prs8bit_generator : New Iteration===========
Instance : 0

Inside foo before eval.....
clk=0
rst=1
out=0

Inside foo after eval.....
clk=0
rst=1
out=0
=============inderjit_prs8bit_generator : New Iteration===========
Instance : 0

Inside foo before eval.....
clk=0
rst=1
out=0

Inside foo after eval.....
clk=1
rst=1
out=0
=============inderjit_digi_sinewave_generator : New Iteration===========
Instance : 0

Inside foo before eval.....
clk=0
dsine=0
data_out=0

Inside foo after eval.....
clk=1
dsine=0
data_out=0
=============inderjit_prs8bit_generator : New Iteration===========
Instance : 0

Inside foo before eval.....
clk=1
rst=1
out=0

Inside foo after eval.....
clk=1
rst=1
out=0
=============inderjit_digi_sinewave_generator : New Iteration===========
Instance : 0

Inside foo before eval.....
clk=1
dsine=0
data_out=0

Inside foo after eval.....
clk=1
dsine=0
data_out=0
=============inderjit_prs8bit_generator : New Iteration===========
Instance : 0

Inside foo before eval.....
clk=1
rst=1
out=0

Inside foo after eval.....
clk=1
rst=1
out=0
=============inderjit_digi_sinewave_generator : New Iteration===========
Instance : 0

Inside foo before eval.....
clk=1
dsine=0
data_out=0

Inside foo after eval.....
clk=1
dsine=0
data_out=0
=============inderjit_prs8bit_generator : New Iteration===========
Instance : 0

Inside foo before eval.....
clk=1
rst=1
out=0

Inside foo after eval.....
clk=0
rst=1
out=0
=============inderjit_digi_sinewave_generator : New Iteration===========
Instance : 0

Inside foo before eval.....
clk=1
dsine=0
data_out=0

Inside foo after eval.....
clk=0
dsine=0
data_out=0
=============inderjit_prs8bit_generator : New Iteration===========
Instance : 0

Inside foo before eval.....
clk=0
rst=1
out=0

Inside foo after eval.....
clk=1
rst=1
out=0
=============inderjit_digi_sinewave_generator : New Iteration===========
Instance : 0

Inside foo before eval.....
clk=0
dsine=0
data_out=0

Inside foo after eval.....
clk=1
dsine=0
data_out=76
=============inderjit_prs8bit_generator : New Iteration===========
Instance : 0

Inside foo before eval.....
clk=1
rst=1
out=0

Inside foo after eval.....
clk=1
rst=1
out=0
=============inderjit_digi_sinewave_generator : New Iteration===========
Instance : 0

Inside foo before eval.....
clk=1
dsine=0
data_out=76

Inside foo after eval.....
clk=1
dsine=0
data_out=76
=============inderjit_prs8bit_generator : New Iteration===========
Instance : 0

Inside foo before eval.....
clk=1
rst=1
out=0

Inside foo after eval.....
clk=1
rst=1
out=0
=============inderjit_digi_sinewave_generator : New Iteration===========
Instance : 0

Inside foo before eval.....
clk=1
dsine=0
data_out=76

Inside foo after eval.....
clk=1
dsine=0
data_out=76
=============inderjit_prs8bit_generator : New Iteration===========
Instance : 0

Inside foo before eval.....
clk=1
rst=1
out=0

Inside foo after eval.....
clk=0
rst=1
out=0
=============inderjit_digi_sinewave_generator : New Iteration===========
Instance : 0

Inside foo before eval.....
clk=1
dsine=0
data_out=76

Inside foo after eval.....
clk=0
dsine=0
data_out=76
=============inderjit_prs8bit_generator : New Iteration===========
Instance : 0

Inside foo before eval.....
clk=0
rst=1
out=0

Inside foo after eval.....
clk=0
rst=1
out=0
=============inderjit_prs8bit_generator : New Iteration===========
Instance : 0

Inside foo before eval.....
clk=0
rst=1
out=0

Inside foo after eval.....
clk=0
rst=0
out=0
=============inderjit_prs8bit_generator : New Iteration===========
Instance : 0

Inside foo before eval.....
clk=0
rst=0
out=0

Inside foo after eval.....
clk=1
rst=0
out=0
=============inderjit_digi_sinewave_generator : New Iteration===========
Instance : 0

Inside foo before eval.....
clk=0
dsine=0
data_out=76

Inside foo after eval.....
clk=1
dsine=0
data_out=141
=============inderjit_prs8bit_generator : New Iteration===========
Instance : 0

Inside foo before eval.....
clk=1
rst=0
out=0

Inside foo after eval.....
clk=1
rst=0
out=0
=============inderjit_digi_sinewave_generator : New Iteration===========
Instance : 0

Inside foo before eval.....
clk=1
dsine=0
data_out=141

Inside foo after eval.....
clk=1
dsine=0
data_out=141
=============inderjit_prs8bit_generator : New Iteration===========
Instance : 0

Inside foo before eval.....
clk=1
rst=0
out=0

Inside foo after eval.....
clk=1
rst=0
out=0
=============inderjit_digi_sinewave_generator : New Iteration===========
Instance : 0

Inside foo before eval.....
clk=1
dsine=0
data_out=141

Inside foo after eval.....
clk=1
dsine=0
data_out=141
=============inderjit_prs8bit_generator : New Iteration===========
Instance : 0

Inside foo before eval.....
clk=1
rst=0
out=0

Inside foo after eval.....
clk=0
rst=0
out=0
=============inderjit_digi_sinewave_generator : New Iteration===========
Instance : 0

Inside foo before eval.....
clk=1
dsine=0
data_out=141

Inside foo after eval.....
clk=0
dsine=0
data_out=141
=============inderjit_prs8bit_generator : New Iteration===========
Instance : 0

Inside foo before eval.....
clk=0
rst=0
out=0

Inside foo after eval.....
clk=1
rst=0
out=1
=============inderjit_digi_sinewave_generator : New Iteration===========
Instance : 0

Inside foo before eval.....
clk=0
dsine=0
data_out=141

Inside foo after eval.....
clk=1
dsine=0
data_out=185
=============inderjit_digi_sinewave_generator : New Iteration===========
Instance : 0

Inside foo before eval.....
clk=1
dsine=0
data_out=185

Inside foo after eval.....
clk=1
dsine=1
data_out=185
=============inderjit_prs8bit_generator : New Iteration===========
Instance : 0

Inside foo before eval.....
clk=1
rst=0
out=1

Inside foo after eval.....
clk=1
rst=0
out=1
=============inderjit_digi_sinewave_generator : New Iteration===========
Instance : 0

Inside foo before eval.....
clk=1
dsine=1
data_out=185

Inside foo after eval.....
clk=1
dsine=1
data_out=185
=============inderjit_prs8bit_generator : New Iteration===========
Instance : 0

Inside foo before eval.....
clk=1
rst=0
out=1

Inside foo after eval.....
clk=1
rst=0
out=1
=============inderjit_digi_sinewave_generator : New Iteration===========
Instance : 0

Inside foo before eval.....
clk=1
dsine=1
data_out=185

Inside foo after eval.....
clk=1
dsine=1
data_out=185
=============inderjit_prs8bit_generator : New Iteration===========
Instance : 0

Inside foo before eval.....
clk=1
rst=0
out=1

Inside foo after eval.....
clk=0
rst=0
out=1
=============inderjit_digi_sinewave_generator : New Iteration===========
Instance : 0

Inside foo before eval.....
clk=1
dsine=1
data_out=185

Inside foo after eval.....
clk=0
dsine=1
data_out=185
=============inderjit_prs8bit_generator : New Iteration===========
Instance : 0

Inside foo before eval.....
clk=0
rst=0
out=1

Inside foo after eval.....
clk=1
rst=0
out=0
=============inderjit_digi_sinewave_generator : New Iteration===========
Instance : 0

Inside foo before eval.....
clk=0
dsine=1
data_out=185

Inside foo after eval.....
clk=1
dsine=1
data_out=200
=============inderjit_digi_sinewave_generator : New Iteration===========
Instance : 0

Inside foo before eval.....
clk=1
dsine=1
data_out=200

Inside foo after eval.....
clk=1
dsine=0
data_out=200
=============inderjit_prs8bit_generator : New Iteration===========
Instance : 0

Inside foo before eval.....
clk=1
rst=0
out=0

Inside foo after eval.....
clk=1
rst=0
out=0
=============inderjit_digi_sinewave_generator : New Iteration===========
Instance : 0

Inside foo before eval.....
clk=1
dsine=0
data_out=200

Inside foo after eval.....
clk=1
dsine=0
data_out=200
=============inderjit_prs8bit_generator : New Iteration===========
Instance : 0

Inside foo before eval.....
clk=1
rst=0
out=0

Inside foo after eval.....
clk=1
rst=0
out=0
=============inderjit_digi_sinewave_generator : New Iteration===========
Instance : 0

Inside foo before eval.....
clk=1
dsine=0
data_out=200

Inside foo after eval.....
clk=1
dsine=0
data_out=200
=============inderjit_prs8bit_generator : New Iteration===========
Instance : 0

Inside foo before eval.....
clk=1
rst=0
out=0

Inside foo after eval.....
clk=0
rst=0
out=0
=============inderjit_digi_sinewave_generator : New Iteration===========
Instance : 0

Inside foo before eval.....
clk=1
dsine=0
data_out=200

Inside foo after eval.....
clk=0
dsine=0
data_out=200
=============inderjit_prs8bit_generator : New Iteration===========
Instance : 0

Inside foo before eval.....
clk=0
rst=0
out=0

Inside foo after eval.....
clk=1
rst=0
out=1
=============inderjit_digi_sinewave_generator : New Iteration===========
Instance : 0

Inside foo before eval.....
clk=0
dsine=0
data_out=200

Inside foo after eval.....
clk=1
dsine=0
data_out=185
=============inderjit_digi_sinewave_generator : New Iteration===========
Instance : 0

Inside foo before eval.....
clk=1
dsine=0
data_out=185

Inside foo after eval.....
clk=1
dsine=1
data_out=185
=============inderjit_prs8bit_generator : New Iteration===========
Instance : 0

Inside foo before eval.....
clk=1
rst=0
out=1

Inside foo after eval.....
clk=1
rst=0
out=1
=============inderjit_digi_sinewave_generator : New Iteration===========
Instance : 0

Inside foo before eval.....
clk=1
dsine=1
data_out=185

Inside foo after eval.....
clk=1
dsine=1
data_out=185
=============inderjit_prs8bit_generator : New Iteration===========
Instance : 0

Inside foo before eval.....
clk=1
rst=0
out=1

Inside foo after eval.....
clk=1
rst=0
out=1
=============inderjit_digi_sinewave_generator : New Iteration===========
Instance : 0

Inside foo before eval.....
clk=1
dsine=1
data_out=185

Inside foo after eval.....
clk=1
dsine=1
data_out=185
=============inderjit_prs8bit_generator : New Iteration===========
Instance : 0

Inside foo before eval.....
clk=1
rst=0
out=1

Inside foo after eval.....
clk=0
rst=0
out=1
=============inderjit_digi_sinewave_generator : New Iteration===========
Instance : 0

Inside foo before eval.....
clk=1
dsine=1
data_out=185

Inside foo after eval.....
clk=0
dsine=1
data_out=185
=============inderjit_prs8bit_generator : New Iteration===========
Instance : 0

Inside foo before eval.....
clk=0
rst=0
out=1

Inside foo after eval.....
clk=1
rst=0
out=0
=============inderjit_digi_sinewave_generator : New Iteration===========
Instance : 0

Inside foo before eval.....
clk=0
dsine=1
data_out=185

Inside foo after eval.....
clk=1
dsine=1
data_out=141
=============inderjit_digi_sinewave_generator : New Iteration===========
Instance : 0

Inside foo before eval.....
clk=1
dsine=1
data_out=141

Inside foo after eval.....
clk=1
dsine=0
data_out=141
=============inderjit_prs8bit_generator : New Iteration===========
Instance : 0

Inside foo before eval.....
clk=1
rst=0
out=0

Inside foo after eval.....
clk=1
rst=0
out=0
=============inderjit_digi_sinewave_generator : New Iteration===========
Instance : 0

Inside foo before eval.....
clk=1
dsine=0
data_out=141

Inside foo after eval.....
clk=1
dsine=0
data_out=141
=============inderjit_prs8bit_generator : New Iteration===========
Instance : 0

Inside foo before eval.....
clk=1
rst=0
out=0

Inside foo after eval.....
clk=1
rst=0
out=0
=============inderjit_digi_sinewave_generator : New Iteration===========
Instance : 0

Inside foo before eval.....
clk=1
dsine=0
data_out=141

Inside foo after eval.....
clk=1
dsine=0
data_out=141
=============inderjit_prs8bit_generator : New Iteration===========
Instance : 0

Inside foo before eval.....
clk=1
rst=0
out=0

Inside foo after eval.....
clk=0
rst=0
out=0
=============inderjit_digi_sinewave_generator : New Iteration===========
Instance : 0

Inside foo before eval.....
clk=1
dsine=0
data_out=141

Inside foo after eval.....
clk=0
dsine=0
data_out=141
=============inderjit_prs8bit_generator : New Iteration===========
Instance : 0

Inside foo before eval.....
clk=0
rst=0
out=0

Inside foo after eval.....
clk=1
rst=0
out=1
=============inderjit_digi_sinewave_generator : New Iteration===========
Instance : 0

Inside foo before eval.....
clk=0
dsine=0
data_out=141

Inside foo after eval.....
clk=1
dsine=0
data_out=76
=============inderjit_digi_sinewave_generator : New Iteration===========
Instance : 0

Inside foo before eval.....
clk=1
dsine=0
data_out=76

Inside foo after eval.....
clk=1
dsine=1
data_out=76
=============inderjit_prs8bit_generator : New Iteration===========
Instance : 0

Inside foo before eval.....
clk=1
rst=0
out=1

Inside foo after eval.....
clk=1
rst=0
out=1
=============inderjit_digi_sinewave_generator : New Iteration===========
Instance : 0

Inside foo before eval.....
clk=1
dsine=1
data_out=76

Inside foo after eval.....
clk=1
dsine=1
data_out=76
=============inderjit_prs8bit_generator : New Iteration===========
Instance : 0

Inside foo before eval.....
clk=1
rst=0
out=1

Inside foo after eval.....
clk=1
rst=0
out=1
=============inderjit_digi_sinewave_generator : New Iteration===========
Instance : 0

Inside foo before eval.....
clk=1
dsine=1
data_out=76

Inside foo after eval.....
clk=1
dsine=1
data_out=76
=============inderjit_prs8bit_generator : New Iteration===========
Instance : 0

Inside foo before eval.....
clk=1
rst=0
out=1

Inside foo after eval.....
clk=0
rst=0
out=1
=============inderjit_digi_sinewave_generator : New Iteration===========
Instance : 0

Inside foo before eval.....
clk=1
dsine=1
data_out=76

Inside foo after eval.....
clk=0
dsine=1
data_out=76
=============inderjit_prs8bit_generator : New Iteration===========
Instance : 0

Inside foo before eval.....
clk=0
rst=0
out=1

Inside foo after eval.....
clk=1
rst=0
out=0
=============inderjit_digi_sinewave_generator : New Iteration===========
Instance : 0

Inside foo before eval.....
clk=0
dsine=1
data_out=76

Inside foo after eval.....
clk=1
dsine=1
data_out=0
=============inderjit_digi_sinewave_generator : New Iteration===========
Instance : 0

Inside foo before eval.....
clk=1
dsine=1
data_out=0

Inside foo after eval.....
clk=1
dsine=0
data_out=0
=============inderjit_prs8bit_generator : New Iteration===========
Instance : 0

Inside foo before eval.....
clk=1
rst=0
out=0

Inside foo after eval.....
clk=1
rst=0
out=0
=============inderjit_digi_sinewave_generator : New Iteration===========
Instance : 0

Inside foo before eval.....
clk=1
dsine=0
data_out=0

Inside foo after eval.....
clk=1
dsine=0
data_out=0
=============inderjit_prs8bit_generator : New Iteration===========
Instance : 0

Inside foo before eval.....
clk=1
rst=0
out=0

Inside foo after eval.....
clk=1
rst=0
out=0
=============inderjit_digi_sinewave_generator : New Iteration===========
Instance : 0

Inside foo before eval.....
clk=1
dsine=0
data_out=0

Inside foo after eval.....
clk=1
dsine=0
data_out=0
=============inderjit_prs8bit_generator : New Iteration===========
Instance : 0

Inside foo before eval.....
clk=1
rst=0
out=0

Inside foo after eval.....
clk=0
rst=0
out=0
=============inderjit_digi_sinewave_generator : New Iteration===========
Instance : 0

Inside foo before eval.....
clk=1
dsine=0
data_out=0

Inside foo after eval.....
clk=0
dsine=0
data_out=0
=============inderjit_prs8bit_generator : New Iteration===========
Instance : 0

Inside foo before eval.....
clk=0
rst=0
out=0

Inside foo after eval.....
clk=1
rst=0
out=1
=============inderjit_digi_sinewave_generator : New Iteration===========
Instance : 0

Inside foo before eval.....
clk=0
dsine=0
data_out=0

Inside foo after eval.....
clk=1
dsine=0
data_out=180
=============inderjit_digi_sinewave_generator : New Iteration===========
Instance : 0

Inside foo before eval.....
clk=1
dsine=0
data_out=180

Inside foo after eval.....
clk=1
dsine=1
data_out=180
=============inderjit_prs8bit_generator : New Iteration===========
Instance : 0

Inside foo before eval.....
clk=1
rst=0
out=1

Inside foo after eval.....
clk=1
rst=0
out=1
=============inderjit_digi_sinewave_generator : New Iteration===========
Instance : 0

Inside foo before eval.....
clk=1
dsine=1
data_out=180

Inside foo after eval.....
clk=1
dsine=1
data_out=180
=============inderjit_prs8bit_generator : New Iteration===========
Instance : 0

Inside foo before eval.....
clk=1
rst=0
out=1

Inside foo after eval.....
clk=1
rst=0
out=1
=============inderjit_digi_sinewave_generator : New Iteration===========
Instance : 0

Inside foo before eval.....
clk=1
dsine=1
data_out=180

Inside foo after eval.....
clk=1
dsine=1
data_out=180
=============inderjit_prs8bit_generator : New Iteration===========
Instance : 0

Inside foo before eval.....
clk=1
rst=0
out=1

Inside foo after eval.....
clk=0
rst=0
out=1
=============inderjit_digi_sinewave_generator : New Iteration===========
Instance : 0

Inside foo before eval.....
clk=1
dsine=1
data_out=180

Inside foo after eval.....
clk=0
dsine=1
data_out=180
=============inderjit_prs8bit_generator : New Iteration===========
Instance : 0

Inside foo before eval.....
clk=0
rst=0
out=1

Inside foo after eval.....
clk=1
rst=0
out=0
=============inderjit_digi_sinewave_generator : New Iteration===========
Instance : 0

Inside foo before eval.....
clk=0
dsine=1
data_out=180

Inside foo after eval.....
clk=1
dsine=1
data_out=115
=============inderjit_digi_sinewave_generator : New Iteration===========
Instance : 0

Inside foo before eval.....
clk=1
dsine=1
data_out=115

Inside foo after eval.....
clk=1
dsine=0
data_out=115
=============inderjit_prs8bit_generator : New Iteration===========
Instance : 0

Inside foo before eval.....
clk=1
rst=0
out=0

Inside foo after eval.....
clk=1
rst=0
out=0
=============inderjit_digi_sinewave_generator : New Iteration===========
Instance : 0

Inside foo before eval.....
clk=1
dsine=0
data_out=115

Inside foo after eval.....
clk=1
dsine=0
data_out=115
=============inderjit_prs8bit_generator : New Iteration===========
Instance : 0

Inside foo before eval.....
clk=1
rst=0
out=0

Inside foo after eval.....
clk=1
rst=0
out=0
=============inderjit_digi_sinewave_generator : New Iteration===========
Instance : 0

Inside foo before eval.....
clk=1
dsine=0
data_out=115

Inside foo after eval.....
clk=1
dsine=0
data_out=115
=============inderjit_prs8bit_generator : New Iteration===========
Instance : 0

Inside foo before eval.....
clk=1
rst=0
out=0

Inside foo after eval.....
clk=0
rst=0
out=0
=============inderjit_digi_sinewave_generator : New Iteration===========
Instance : 0

Inside foo before eval.....
clk=1
dsine=0
data_out=115

Inside foo after eval.....
clk=0
dsine=0
data_out=115
=============inderjit_prs8bit_generator : New Iteration===========
Instance : 0

Inside foo before eval.....
clk=0
rst=0
out=0

Inside foo after eval.....
clk=1
rst=0
out=0
=============inderjit_digi_sinewave_generator : New Iteration===========
Instance : 0

Inside foo before eval.....
clk=0
dsine=0
data_out=115

Inside foo after eval.....
clk=1
dsine=0
data_out=71
=============inderjit_prs8bit_generator : New Iteration===========
Instance : 0

Inside foo before eval.....
clk=1
rst=0
out=0

Inside foo after eval.....
clk=1
rst=0
out=0
=============inderjit_digi_sinewave_generator : New Iteration===========
Instance : 0

Inside foo before eval.....
clk=1
dsine=0
data_out=71

Inside foo after eval.....
clk=1
dsine=0
data_out=71
=============inderjit_prs8bit_generator : New Iteration===========
Instance : 0

Inside foo before eval.....
clk=1
rst=0
out=0

Inside foo after eval.....
clk=1
rst=0
out=0
=============inderjit_digi_sinewave_generator : New Iteration===========
Instance : 0

Inside foo before eval.....
clk=1
dsine=0
data_out=71

Inside foo after eval.....
clk=1
dsine=0
data_out=71
=============inderjit_prs8bit_generator : New Iteration===========
Instance : 0

Inside foo before eval.....
clk=1
rst=0
out=0

Inside foo after eval.....
clk=0
rst=0
out=0
=============inderjit_digi_sinewave_generator : New Iteration===========
Instance : 0

Inside foo before eval.....
clk=1
dsine=0
data_out=71

Inside foo after eval.....
clk=0
dsine=0
data_out=71
=============inderjit_prs8bit_generator : New Iteration===========
Instance : 0

Inside foo before eval.....
clk=0
rst=0
out=0

Inside foo after eval.....
clk=1
rst=0
out=0
=============inderjit_digi_sinewave_generator : New Iteration===========
Instance : 0

Inside foo before eval.....
clk=0
dsine=0
data_out=71

Inside foo after eval.....
clk=1
dsine=0
data_out=56
=============inderjit_prs8bit_generator : New Iteration===========
Instance : 0

Inside foo before eval.....
clk=1
rst=0
out=0

Inside foo after eval.....
clk=1
rst=0
out=0
=============inderjit_digi_sinewave_generator : New Iteration===========
Instance : 0

Inside foo before eval.....
clk=1
dsine=0
data_out=56

Inside foo after eval.....
clk=1
dsine=0
data_out=56
=============inderjit_prs8bit_generator : New Iteration===========
Instance : 0

Inside foo before eval.....
clk=1
rst=0
out=0

Inside foo after eval.....
clk=1
rst=0
out=0
=============inderjit_digi_sinewave_generator : New Iteration===========
Instance : 0

Inside foo before eval.....
clk=1
dsine=0
data_out=56

Inside foo after eval.....
clk=1
dsine=0
data_out=56
=============inderjit_prs8bit_generator : New Iteration===========
Instance : 0

Inside foo before eval.....
clk=1
rst=0
out=0

Inside foo after eval.....
clk=0
rst=0
out=0
=============inderjit_digi_sinewave_generator : New Iteration===========
Instance : 0

Inside foo before eval.....
clk=1
dsine=0
data_out=56

Inside foo after eval.....
clk=0
dsine=0
data_out=56
=============inderjit_prs8bit_generator : New Iteration===========
Instance : 0

Inside foo before eval.....
clk=0
rst=0
out=0

Inside foo after eval.....
clk=1
rst=0
out=0
=============inderjit_digi_sinewave_generator : New Iteration===========
Instance : 0

Inside foo before eval.....
clk=0
dsine=0
data_out=56

Inside foo after eval.....
clk=1
dsine=0
data_out=71
=============inderjit_prs8bit_generator : New Iteration===========
Instance : 0

Inside foo before eval.....
clk=1
rst=0
out=0

Inside foo after eval.....
clk=1
rst=0
out=0
=============inderjit_digi_sinewave_generator : New Iteration===========
Instance : 0

Inside foo before eval.....
clk=1
dsine=0
data_out=71

Inside foo after eval.....
clk=1
dsine=0
data_out=71
=============inderjit_prs8bit_generator : New Iteration===========
Instance : 0

Inside foo before eval.....
clk=1
rst=0
out=0

Inside foo after eval.....
clk=1
rst=0
out=0
=============inderjit_digi_sinewave_generator : New Iteration===========
Instance : 0

Inside foo before eval.....
clk=1
dsine=0
data_out=71

Inside foo after eval.....
clk=1
dsine=0
data_out=71
=============inderjit_prs8bit_generator : New Iteration===========
Instance : 0

Inside foo before eval.....
clk=1
rst=0
out=0

Inside foo after eval.....
clk=0
rst=0
out=0
=============inderjit_digi_sinewave_generator : New Iteration===========
Instance : 0

Inside foo before eval.....
clk=1
dsine=0
data_out=71

Inside foo after eval.....
clk=0
dsine=0
data_out=71
=============inderjit_prs8bit_generator : New Iteration===========
Instance : 0

Inside foo before eval.....
clk=0
rst=0
out=0

Inside foo after eval.....
clk=1
rst=0
out=0
=============inderjit_digi_sinewave_generator : New Iteration===========
Instance : 0

Inside foo before eval.....
clk=0
dsine=0
data_out=71

Inside foo after eval.....
clk=1
dsine=0
data_out=115
=============inderjit_prs8bit_generator : New Iteration===========
Instance : 0

Inside foo before eval.....
clk=1
rst=0
out=0

Inside foo after eval.....
clk=1
rst=0
out=0
=============inderjit_digi_sinewave_generator : New Iteration===========
Instance : 0

Inside foo before eval.....
clk=1
dsine=0
data_out=115

Inside foo after eval.....
clk=1
dsine=0
data_out=115
=============inderjit_prs8bit_generator : New Iteration===========
Instance : 0

Inside foo before eval.....
clk=1
rst=0
out=0

Inside foo after eval.....
clk=1
rst=0
out=0
=============inderjit_digi_sinewave_generator : New Iteration===========
Instance : 0

Inside foo before eval.....
clk=1
dsine=0
data_out=115

Inside foo after eval.....
clk=1
dsine=0
data_out=115
=============inderjit_prs8bit_generator : New Iteration===========
Instance : 0

Inside foo before eval.....
clk=1
rst=0
out=0

Inside foo after eval.....
clk=0
rst=0
out=0
=============inderjit_digi_sinewave_generator : New Iteration===========
Instance : 0

Inside foo before eval.....
clk=1
dsine=0
data_out=115

Inside foo after eval.....
clk=0
dsine=0
data_out=115
=============inderjit_prs8bit_generator : New Iteration===========
Instance : 0

Inside foo before eval.....
clk=0
rst=0
out=0

Inside foo after eval.....
clk=1
rst=0
out=1
=============inderjit_digi_sinewave_generator : New Iteration===========
Instance : 0

Inside foo before eval.....
clk=0
dsine=0
data_out=115

Inside foo after eval.....
clk=1
dsine=0
data_out=180
=============inderjit_digi_sinewave_generator : New Iteration===========
Instance : 0

Inside foo before eval.....
clk=1
dsine=0
data_out=180

Inside foo after eval.....
clk=1
dsine=1
data_out=180
=============inderjit_prs8bit_generator : New Iteration===========
Instance : 0

Inside foo before eval.....
clk=1
rst=0
out=1

Inside foo after eval.....
clk=1
rst=0
out=1
=============inderjit_digi_sinewave_generator : New Iteration===========
Instance : 0

Inside foo before eval.....
clk=1
dsine=1
data_out=180

Inside foo after eval.....
clk=1
dsine=1
data_out=180
=============inderjit_prs8bit_generator : New Iteration===========
Instance : 0

Inside foo before eval.....
clk=1
rst=0
out=1

Inside foo after eval.....
clk=1
rst=0
out=1
=============inderjit_digi_sinewave_generator : New Iteration===========
Instance : 0

Inside foo before eval.....
clk=1
dsine=1
data_out=180

Inside foo after eval.....
clk=1
dsine=1
data_out=180
=============inderjit_prs8bit_generator : New Iteration===========
Instance : 0

Inside foo before eval.....
clk=1
rst=0
out=1

Inside foo after eval.....
clk=0
rst=0
out=1
=============inderjit_digi_sinewave_generator : New Iteration===========
Instance : 0

Inside foo before eval.....
clk=1
dsine=1
data_out=180

Inside foo after eval.....
clk=0
dsine=1
data_out=180
=============inderjit_prs8bit_generator : New Iteration===========
Instance : 0

Inside foo before eval.....
clk=0
rst=0
out=1

Inside foo after eval.....
clk=1
rst=0
out=1
=============inderjit_digi_sinewave_generator : New Iteration===========
Instance : 0

Inside foo before eval.....
clk=0
dsine=1
data_out=180

Inside foo after eval.....
clk=1
dsine=1
data_out=0
=============inderjit_prs8bit_generator : New Iteration===========
Instance : 0

Inside foo before eval.....
clk=1
rst=0
out=1

Inside foo after eval.....
clk=1
rst=0
out=1
=============inderjit_digi_sinewave_generator : New Iteration===========
Instance : 0

Inside foo before eval.....
clk=1
dsine=1
data_out=0

Inside foo after eval.....
clk=1
dsine=1
data_out=0
=============inderjit_prs8bit_generator : New Iteration===========
Instance : 0

Inside foo before eval.....
clk=1
rst=0
out=1

Inside foo after eval.....
clk=1
rst=0
out=1
=============inderjit_digi_sinewave_generator : New Iteration===========
Instance : 0

Inside foo before eval.....
clk=1
dsine=1
data_out=0

Inside foo after eval.....
clk=1
dsine=1
data_out=0
=============inderjit_prs8bit_generator : New Iteration===========
Instance : 0

Inside foo before eval.....
clk=1
rst=0
out=1

Inside foo after eval.....
clk=0
rst=0
out=1
=============inderjit_digi_sinewave_generator : New Iteration===========
Instance : 0

Inside foo before eval.....
clk=1
dsine=1
data_out=0

Inside foo after eval.....
clk=0
dsine=1
data_out=0
=============inderjit_prs8bit_generator : New Iteration===========
Instance : 0

Inside foo before eval.....
clk=0
rst=0
out=1

Inside foo after eval.....
clk=1
rst=0
out=0
=============inderjit_digi_sinewave_generator : New Iteration===========
Instance : 0

Inside foo before eval.....
clk=0
dsine=1
data_out=0

Inside foo after eval.....
clk=1
dsine=1
data_out=76
=============inderjit_digi_sinewave_generator : New Iteration===========
Instance : 0

Inside foo before eval.....
clk=1
dsine=1
data_out=76

Inside foo after eval.....
clk=1
dsine=0
data_out=76
=============inderjit_prs8bit_generator : New Iteration===========
Instance : 0

Inside foo before eval.....
clk=1
rst=0
out=0

Inside foo after eval.....
clk=1
rst=0
out=0
=============inderjit_digi_sinewave_generator : New Iteration===========
Instance : 0

Inside foo before eval.....
clk=1
dsine=0
data_out=76

Inside foo after eval.....
clk=1
dsine=0
data_out=76
=============inderjit_prs8bit_generator : New Iteration===========
Instance : 0

Inside foo before eval.....
clk=1
rst=0
out=0

Inside foo after eval.....
clk=1
rst=0
out=0
=============inderjit_digi_sinewave_generator : New Iteration===========
Instance : 0

Inside foo before eval.....
clk=1
dsine=0
data_out=76

Inside foo after eval.....
clk=1
dsine=0
data_out=76
=============inderjit_prs8bit_generator : New Iteration===========
Instance : 0

Inside foo before eval.....
clk=1
rst=0
out=0

Inside foo after eval.....
clk=0
rst=0
out=0
=============inderjit_digi_sinewave_generator : New Iteration===========
Instance : 0

Inside foo before eval.....
clk=1
dsine=0
data_out=76

Inside foo after eval.....
clk=0
dsine=0
data_out=76
=============inderjit_prs8bit_generator : New Iteration===========
Instance : 0

Inside foo before eval.....
clk=0
rst=0
out=0

Inside foo after eval.....
clk=1
rst=0
out=1
=============inderjit_digi_sinewave_generator : New Iteration===========
Instance : 0

Inside foo before eval.....
clk=0
dsine=0
data_out=76

Inside foo after eval.....
clk=1
dsine=0
data_out=141
=============inderjit_digi_sinewave_generator : New Iteration===========
Instance : 0

Inside foo before eval.....
clk=1
dsine=0
data_out=141

Inside foo after eval.....
clk=1
dsine=1
data_out=141
=============inderjit_prs8bit_generator : New Iteration===========
Instance : 0

Inside foo before eval.....
clk=1
rst=0
out=1

Inside foo after eval.....
clk=1
rst=0
out=1
=============inderjit_digi_sinewave_generator : New Iteration===========
Instance : 0

Inside foo before eval.....
clk=1
dsine=1
data_out=141

Inside foo after eval.....
clk=1
dsine=1
data_out=141
=============inderjit_prs8bit_generator : New Iteration===========
Instance : 0

Inside foo before eval.....
clk=1
rst=0
out=1

Inside foo after eval.....
clk=1
rst=0
out=1
=============inderjit_digi_sinewave_generator : New Iteration===========
Instance : 0

Inside foo before eval.....
clk=1
dsine=1
data_out=141

Inside foo after eval.....
clk=1
dsine=1
data_out=141
=============inderjit_prs8bit_generator : New Iteration===========
Instance : 0

Inside foo before eval.....
clk=1
rst=0
out=1

Inside foo after eval.....
clk=0
rst=0
out=1
=============inderjit_digi_sinewave_generator : New Iteration===========
Instance : 0

Inside foo before eval.....
clk=1
dsine=1
data_out=141

Inside foo after eval.....
clk=0
dsine=1
data_out=141
=============inderjit_prs8bit_generator : New Iteration===========
Instance : 0

Inside foo before eval.....
clk=0
rst=0
out=1

Inside foo after eval.....
clk=1
rst=0
out=0
=============inderjit_digi_sinewave_generator : New Iteration===========
Instance : 0

Inside foo before eval.....
clk=0
dsine=1
data_out=141

Inside foo after eval.....
clk=1
dsine=1
data_out=185
=============inderjit_digi_sinewave_generator : New Iteration===========
Instance : 0

Inside foo before eval.....
clk=1
dsine=1
data_out=185

Inside foo after eval.....
clk=1
dsine=0
data_out=185
=============inderjit_prs8bit_generator : New Iteration===========
Instance : 0

Inside foo before eval.....
clk=1
rst=0
out=0

Inside foo after eval.....
clk=1
rst=0
out=0
=============inderjit_digi_sinewave_generator : New Iteration===========
Instance : 0

Inside foo before eval.....
clk=1
dsine=0
data_out=185

Inside foo after eval.....
clk=1
dsine=0
data_out=185
=============inderjit_prs8bit_generator : New Iteration===========
Instance : 0

Inside foo before eval.....
clk=1
rst=0
out=0

Inside foo after eval.....
clk=1
rst=0
out=0
=============inderjit_digi_sinewave_generator : New Iteration===========
Instance : 0

Inside foo before eval.....
clk=1
dsine=0
data_out=185

Inside foo after eval.....
clk=1
dsine=0
data_out=185
=============inderjit_prs8bit_generator : New Iteration===========
Instance : 0

Inside foo before eval.....
clk=1
rst=0
out=0

Inside foo after eval.....
clk=0
rst=0
out=0
=============inderjit_digi_sinewave_generator : New Iteration===========
Instance : 0

Inside foo before eval.....
clk=1
dsine=0
data_out=185

Inside foo after eval.....
clk=0
dsine=0
data_out=185
=============inderjit_prs8bit_generator : New Iteration===========
Instance : 0

Inside foo before eval.....
clk=0
rst=0
out=0

Inside foo after eval.....
clk=1
rst=0
out=1
=============inderjit_digi_sinewave_generator : New Iteration===========
Instance : 0

Inside foo before eval.....
clk=0
dsine=0
data_out=185

Inside foo after eval.....
clk=1
dsine=0
data_out=200
=============inderjit_digi_sinewave_generator : New Iteration===========
Instance : 0

Inside foo before eval.....
clk=1
dsine=0
data_out=200

Inside foo after eval.....
clk=1
dsine=1
data_out=200
=============inderjit_prs8bit_generator : New Iteration===========
Instance : 0

Inside foo before eval.....
clk=1
rst=0
out=1

Inside foo after eval.....
clk=1
rst=0
out=1
=============inderjit_digi_sinewave_generator : New Iteration===========
Instance : 0

Inside foo before eval.....
clk=1
dsine=1
data_out=200

Inside foo after eval.....
clk=1
dsine=1
data_out=200
=============inderjit_prs8bit_generator : New Iteration===========
Instance : 0

Inside foo before eval.....
clk=1
rst=0
out=1

Inside foo after eval.....
clk=1
rst=0
out=1
=============inderjit_digi_sinewave_generator : New Iteration===========
Instance : 0

Inside foo before eval.....
clk=1
dsine=1
data_out=200

Inside foo after eval.....
clk=1
dsine=1
data_out=200
=============inderjit_prs8bit_generator : New Iteration===========
Instance : 0

Inside foo before eval.....
clk=1
rst=0
out=1

Inside foo after eval.....
clk=0
rst=0
out=1
=============inderjit_digi_sinewave_generator : New Iteration===========
Instance : 0

Inside foo before eval.....
clk=1
dsine=1
data_out=200

Inside foo after eval.....
clk=0
dsine=1
data_out=200
=============inderjit_prs8bit_generator : New Iteration===========
Instance : 0

Inside foo before eval.....
clk=0
rst=0
out=1

Inside foo after eval.....
clk=1
rst=0
out=1
=============inderjit_digi_sinewave_generator : New Iteration===========
Instance : 0

Inside foo before eval.....
clk=0
dsine=1
data_out=200

Inside foo after eval.....
clk=1
dsine=1
data_out=185
=============inderjit_prs8bit_generator : New Iteration===========
Instance : 0

Inside foo before eval.....
clk=1
rst=0
out=1

Inside foo after eval.....
clk=1
rst=0
out=1
=============inderjit_digi_sinewave_generator : New Iteration===========
Instance : 0

Inside foo before eval.....
clk=1
dsine=1
data_out=185

Inside foo after eval.....
clk=1
dsine=1
data_out=185
=============inderjit_prs8bit_generator : New Iteration===========
Instance : 0

Inside foo before eval.....
clk=1
rst=0
out=1

Inside foo after eval.....
clk=1
rst=0
out=1
=============inderjit_digi_sinewave_generator : New Iteration===========
Instance : 0

Inside foo before eval.....
clk=1
dsine=1
data_out=185

Inside foo after eval.....
clk=1
dsine=1
data_out=185
=============inderjit_prs8bit_generator : New Iteration===========
Instance : 0

Inside foo before eval.....
clk=1
rst=0
out=1

Inside foo after eval.....
clk=0
rst=0
out=1
=============inderjit_digi_sinewave_generator : New Iteration===========
Instance : 0

Inside foo before eval.....
clk=1
dsine=1
data_out=185

Inside foo after eval.....
clk=0
dsine=1
data_out=185
=============inderjit_prs8bit_generator : New Iteration===========
Instance : 0

Inside foo before eval.....
clk=0
rst=0
out=1

Inside foo after eval.....
clk=1
rst=0
out=1
=============inderjit_digi_sinewave_generator : New Iteration===========
Instance : 0

Inside foo before eval.....
clk=0
dsine=1
data_out=185

Inside foo after eval.....
clk=1
dsine=1
data_out=141
=============inderjit_prs8bit_generator : New Iteration===========
Instance : 0

Inside foo before eval.....
clk=1
rst=0
out=1

Inside foo after eval.....
clk=1
rst=0
out=1
=============inderjit_digi_sinewave_generator : New Iteration===========
Instance : 0

Inside foo before eval.....
clk=1
dsine=1
data_out=141

Inside foo after eval.....
clk=1
dsine=1
data_out=141
=============inderjit_prs8bit_generator : New Iteration===========
Instance : 0

Inside foo before eval.....
clk=1
rst=0
out=1

Inside foo after eval.....
clk=1
rst=0
out=1
=============inderjit_digi_sinewave_generator : New Iteration===========
Instance : 0

Inside foo before eval.....
clk=1
dsine=1
data_out=141

Inside foo after eval.....
clk=1
dsine=1
data_out=141
=============inderjit_prs8bit_generator : New Iteration===========
Instance : 0

Inside foo before eval.....
clk=1
rst=0
out=1

Inside foo after eval.....
clk=0
rst=0
out=1
=============inderjit_digi_sinewave_generator : New Iteration===========
Instance : 0

Inside foo before eval.....
clk=1
dsine=1
data_out=141

Inside foo after eval.....
clk=0
dsine=1
data_out=141
=============inderjit_prs8bit_generator : New Iteration===========
Instance : 0

Inside foo before eval.....
clk=0
rst=0
out=1

Inside foo after eval.....
clk=1
rst=0
out=1
=============inderjit_digi_sinewave_generator : New Iteration===========
Instance : 0

Inside foo before eval.....
clk=0
dsine=1
data_out=141

Inside foo after eval.....
clk=1
dsine=1
data_out=76
=============inderjit_prs8bit_generator : New Iteration===========
Instance : 0

Inside foo before eval.....
clk=1
rst=0
out=1

Inside foo after eval.....
clk=1
rst=0
out=1
=============inderjit_digi_sinewave_generator : New Iteration===========
Instance : 0

Inside foo before eval.....
clk=1
dsine=1
data_out=76

Inside foo after eval.....
clk=1
dsine=1
data_out=76
=============inderjit_prs8bit_generator : New Iteration===========
Instance : 0

Inside foo before eval.....
clk=1
rst=0
out=1

Inside foo after eval.....
clk=1
rst=0
out=1
=============inderjit_digi_sinewave_generator : New Iteration===========
Instance : 0

Inside foo before eval.....
clk=1
dsine=1
data_out=76

Inside foo after eval.....
clk=1
dsine=1
data_out=76
=============inderjit_prs8bit_generator : New Iteration===========
Instance : 0

Inside foo before eval.....
clk=1
rst=0
out=1

Inside foo after eval.....
clk=0
rst=0
out=1
=============inderjit_digi_sinewave_generator : New Iteration===========
Instance : 0

Inside foo before eval.....
clk=1
dsine=1
data_out=76

Inside foo after eval.....
clk=0
dsine=1
data_out=76
=============inderjit_prs8bit_generator : New Iteration===========
Instance : 0

Inside foo before eval.....
clk=0
rst=0
out=1

Inside foo after eval.....
clk=1
rst=0
out=0
=============inderjit_digi_sinewave_generator : New Iteration===========
Instance : 0

Inside foo before eval.....
clk=0
dsine=1
data_out=76

Inside foo after eval.....
clk=1
dsine=1
data_out=0
=============inderjit_digi_sinewave_generator : New Iteration===========
Instance : 0

Inside foo before eval.....
clk=1
dsine=1
data_out=0

Inside foo after eval.....
clk=1
dsine=0
data_out=0
=============inderjit_prs8bit_generator : New Iteration===========
Instance : 0

Inside foo before eval.....
clk=1
rst=0
out=0

Inside foo after eval.....
clk=1
rst=0
out=0
=============inderjit_digi_sinewave_generator : New Iteration===========
Instance : 0

Inside foo before eval.....
clk=1
dsine=0
data_out=0

Inside foo after eval.....
clk=1
dsine=0
data_out=0
=============inderjit_prs8bit_generator : New Iteration===========
Instance : 0

Inside foo before eval.....
clk=1
rst=0
out=0

Inside foo after eval.....
clk=1
rst=0
out=0
=============inderjit_digi_sinewave_generator : New Iteration===========
Instance : 0

Inside foo before eval.....
clk=1
dsine=0
data_out=0

Inside foo after eval.....
clk=1
dsine=0
data_out=0
=============inderjit_prs8bit_generator : New Iteration===========
Instance : 0

Inside foo before eval.....
clk=1
rst=0
out=0

Inside foo after eval.....
clk=0
rst=0
out=0
=============inderjit_digi_sinewave_generator : New Iteration===========
Instance : 0

Inside foo before eval.....
clk=1
dsine=0
data_out=0

Inside foo after eval.....
clk=0
dsine=0
data_out=0
=============inderjit_prs8bit_generator : New Iteration===========
Instance : 0

Inside foo before eval.....
clk=0
rst=0
out=0

Inside foo after eval.....
clk=1
rst=0
out=1
=============inderjit_digi_sinewave_generator : New Iteration===========
Instance : 0

Inside foo before eval.....
clk=0
dsine=0
data_out=0

Inside foo after eval.....
clk=1
dsine=0
data_out=180
=============inderjit_digi_sinewave_generator : New Iteration===========
Instance : 0

Inside foo before eval.....
clk=1
dsine=0
data_out=180

Inside foo after eval.....
clk=1
dsine=1
data_out=180
=============inderjit_prs8bit_generator : New Iteration===========
Instance : 0

Inside foo before eval.....
clk=1
rst=0
out=1

Inside foo after eval.....
clk=1
rst=0
out=1
=============inderjit_digi_sinewave_generator : New Iteration===========
Instance : 0

Inside foo before eval.....
clk=1
dsine=1
data_out=180

Inside foo after eval.....
clk=1
dsine=1
data_out=180
=============inderjit_prs8bit_generator : New Iteration===========
Instance : 0

Inside foo before eval.....
clk=1
rst=0
out=1

Inside foo after eval.....
clk=1
rst=0
out=1
=============inderjit_digi_sinewave_generator : New Iteration===========
Instance : 0

Inside foo before eval.....
clk=1
dsine=1
data_out=180

Inside foo after eval.....
clk=1
dsine=1
data_out=180
=============inderjit_prs8bit_generator : New Iteration===========
Instance : 0

Inside foo before eval.....
clk=1
rst=0
out=1

Inside foo after eval.....
clk=0
rst=0
out=1
=============inderjit_digi_sinewave_generator : New Iteration===========
Instance : 0

Inside foo before eval.....
clk=1
dsine=1
data_out=180

Inside foo after eval.....
clk=0
dsine=1
data_out=180
=============inderjit_prs8bit_generator : New Iteration===========
Instance : 0

Inside foo before eval.....
clk=0
rst=0
out=1

Inside foo after eval.....
clk=1
rst=0
out=1
=============inderjit_digi_sinewave_generator : New Iteration===========
Instance : 0

Inside foo before eval.....
clk=0
dsine=1
data_out=180

Inside foo after eval.....
clk=1
dsine=1
data_out=115
=============inderjit_prs8bit_generator : New Iteration===========
Instance : 0

Inside foo before eval.....
clk=1
rst=0
out=1

Inside foo after eval.....
clk=1
rst=0
out=1
=============inderjit_digi_sinewave_generator : New Iteration===========
Instance : 0

Inside foo before eval.....
clk=1
dsine=1
data_out=115

Inside foo after eval.....
clk=1
dsine=1
data_out=115
=============inderjit_prs8bit_generator : New Iteration===========
Instance : 0

Inside foo before eval.....
clk=1
rst=0
out=1

Inside foo after eval.....
clk=1
rst=0
out=1
=============inderjit_digi_sinewave_generator : New Iteration===========
Instance : 0

Inside foo before eval.....
clk=1
dsine=1
data_out=115

Inside foo after eval.....
clk=1
dsine=1
data_out=115
=============inderjit_prs8bit_generator : New Iteration===========
Instance : 0

Inside foo before eval.....
clk=1
rst=0
out=1

Inside foo after eval.....
clk=0
rst=0
out=1
=============inderjit_digi_sinewave_generator : New Iteration===========
Instance : 0

Inside foo before eval.....
clk=1
dsine=1
data_out=115

Inside foo after eval.....
clk=0
dsine=1
data_out=115
=============inderjit_prs8bit_generator : New Iteration===========
Instance : 0

Inside foo before eval.....
clk=0
rst=0
out=1

Inside foo after eval.....
clk=1
rst=0
out=0
=============inderjit_digi_sinewave_generator : New Iteration===========
Instance : 0

Inside foo before eval.....
clk=0
dsine=1
data_out=115

Inside foo after eval.....
clk=1
dsine=1
data_out=71
=============inderjit_digi_sinewave_generator : New Iteration===========
Instance : 0

Inside foo before eval.....
clk=1
dsine=1
data_out=71

Inside foo after eval.....
clk=1
dsine=0
data_out=71
=============inderjit_prs8bit_generator : New Iteration===========
Instance : 0

Inside foo before eval.....
clk=1
rst=0
out=0

Inside foo after eval.....
clk=1
rst=0
out=0
=============inderjit_digi_sinewave_generator : New Iteration===========
Instance : 0

Inside foo before eval.....
clk=1
dsine=0
data_out=71

Inside foo after eval.....
clk=1
dsine=0
data_out=71
=============inderjit_prs8bit_generator : New Iteration===========
Instance : 0

Inside foo before eval.....
clk=1
rst=0
out=0

Inside foo after eval.....
clk=1
rst=0
out=0
=============inderjit_digi_sinewave_generator : New Iteration===========
Instance : 0

Inside foo before eval.....
clk=1
dsine=0
data_out=71

Inside foo after eval.....
clk=1
dsine=0
data_out=71
=============inderjit_prs8bit_generator : New Iteration===========
Instance : 0

Inside foo before eval.....
clk=1
rst=0
out=0

Inside foo after eval.....
clk=0
rst=0
out=0
=============inderjit_digi_sinewave_generator : New Iteration===========
Instance : 0

Inside foo before eval.....
clk=1
dsine=0
data_out=71

Inside foo after eval.....
clk=0
dsine=0
data_out=71
=============inderjit_prs8bit_generator : New Iteration===========
Instance : 0

Inside foo before eval.....
clk=0
rst=0
out=0

Inside foo after eval.....
clk=1
rst=0
out=0
=============inderjit_digi_sinewave_generator : New Iteration===========
Instance : 0

Inside foo before eval.....
clk=0
dsine=0
data_out=71

Inside foo after eval.....
clk=1
dsine=0
data_out=56
=============inderjit_prs8bit_generator : New Iteration===========
Instance : 0

Inside foo before eval.....
clk=1
rst=0
out=0

Inside foo after eval.....
clk=1
rst=0
out=0
=============inderjit_digi_sinewave_generator : New Iteration===========
Instance : 0

Inside foo before eval.....
clk=1
dsine=0
data_out=56

Inside foo after eval.....
clk=1
dsine=0
data_out=56
=============inderjit_prs8bit_generator : New Iteration===========
Instance : 0

Inside foo before eval.....
clk=1
rst=0
out=0

Inside foo after eval.....
clk=1
rst=0
out=0
=============inderjit_digi_sinewave_generator : New Iteration===========
Instance : 0

Inside foo before eval.....
clk=1
dsine=0
data_out=56

Inside foo after eval.....
clk=1
dsine=0
data_out=56
=============inderjit_prs8bit_generator : New Iteration===========
Instance : 0

Inside foo before eval.....
clk=1
rst=0
out=0

Inside foo after eval.....
clk=0
rst=0
out=0
=============inderjit_digi_sinewave_generator : New Iteration===========
Instance : 0

Inside foo before eval.....
clk=1
dsine=0
data_out=56

Inside foo after eval.....
clk=0
dsine=0
data_out=56
=============inderjit_prs8bit_generator : New Iteration===========
Instance : 0

Inside foo before eval.....
clk=0
rst=0
out=0

Inside foo after eval.....
clk=1
rst=0
out=0
=============inderjit_digi_sinewave_generator : New Iteration===========
Instance : 0

Inside foo before eval.....
clk=0
dsine=0
data_out=56

Inside foo after eval.....
clk=1
dsine=0
data_out=71
=============inderjit_prs8bit_generator : New Iteration===========
Instance : 0

Inside foo before eval.....
clk=1
rst=0
out=0

Inside foo after eval.....
clk=1
rst=0
out=0
=============inderjit_digi_sinewave_generator : New Iteration===========
Instance : 0

Inside foo before eval.....
clk=1
dsine=0
data_out=71

Inside foo after eval.....
clk=1
dsine=0
data_out=71
=============inderjit_prs8bit_generator : New Iteration===========
Instance : 0

Inside foo before eval.....
clk=1
rst=0
out=0

Inside foo after eval.....
clk=1
rst=0
out=0
=============inderjit_digi_sinewave_generator : New Iteration===========
Instance : 0

Inside foo before eval.....
clk=1
dsine=0
data_out=71

Inside foo after eval.....
clk=1
dsine=0
data_out=71
=============inderjit_prs8bit_generator : New Iteration===========
Instance : 0

Inside foo before eval.....
clk=1
rst=0
out=0

Inside foo after eval.....
clk=0
rst=0
out=0
=============inderjit_digi_sinewave_generator : New Iteration===========
Instance : 0

Inside foo before eval.....
clk=1
dsine=0
data_out=71

Inside foo after eval.....
clk=0
dsine=0
data_out=71
=============inderjit_prs8bit_generator : New Iteration===========
Instance : 0

Inside foo before eval.....
clk=0
rst=0
out=0

Inside foo after eval.....
clk=1
rst=0
out=0
=============inderjit_digi_sinewave_generator : New Iteration===========
Instance : 0

Inside foo before eval.....
clk=0
dsine=0
data_out=71

Inside foo after eval.....
clk=1
dsine=0
data_out=115
=============inderjit_prs8bit_generator : New Iteration===========
Instance : 0

Inside foo before eval.....
clk=1
rst=0
out=0

Inside foo after eval.....
clk=1
rst=0
out=0
=============inderjit_digi_sinewave_generator : New Iteration===========
Instance : 0

Inside foo before eval.....
clk=1
dsine=0
data_out=115

Inside foo after eval.....
clk=1
dsine=0
data_out=115
=============inderjit_prs8bit_generator : New Iteration===========
Instance : 0

Inside foo before eval.....
clk=1
rst=0
out=0

Inside foo after eval.....
clk=1
rst=0
out=0
=============inderjit_digi_sinewave_generator : New Iteration===========
Instance : 0

Inside foo before eval.....
clk=1
dsine=0
data_out=115

Inside foo after eval.....
clk=1
dsine=0
data_out=115
=============inderjit_prs8bit_generator : New Iteration===========
Instance : 0

Inside foo before eval.....
clk=1
rst=0
out=0

Inside foo after eval.....
clk=0
rst=0
out=0
=============inderjit_digi_sinewave_generator : New Iteration===========
Instance : 0

Inside foo before eval.....
clk=1
dsine=0
data_out=115

Inside foo after eval.....
clk=0
dsine=0
data_out=115
=============inderjit_prs8bit_generator : New Iteration===========
Instance : 0

Inside foo before eval.....
clk=0
rst=0
out=0

Inside foo after eval.....
clk=1
rst=0
out=0
=============inderjit_digi_sinewave_generator : New Iteration===========
Instance : 0

Inside foo before eval.....
clk=0
dsine=0
data_out=115

Inside foo after eval.....
clk=1
dsine=0
data_out=180
=============inderjit_prs8bit_generator : New Iteration===========
Instance : 0

Inside foo before eval.....
clk=1
rst=0
out=0

Inside foo after eval.....
clk=1
rst=0
out=0
=============inderjit_digi_sinewave_generator : New Iteration===========
Instance : 0

Inside foo before eval.....
clk=1
dsine=0
data_out=180

Inside foo after eval.....
clk=1
dsine=0
data_out=180
=============inderjit_prs8bit_generator : New Iteration===========
Instance : 0

Inside foo before eval.....
clk=1
rst=0
out=0

Inside foo after eval.....
clk=1
rst=0
out=0
=============inderjit_digi_sinewave_generator : New Iteration===========
Instance : 0

Inside foo before eval.....
clk=1
dsine=0
data_out=180

Inside foo after eval.....
clk=1
dsine=0
data_out=180
=============inderjit_prs8bit_generator : New Iteration===========
Instance : 0

Inside foo before eval.....
clk=1
rst=0
out=0

Inside foo after eval.....
clk=0
rst=0
out=0
=============inderjit_digi_sinewave_generator : New Iteration===========
Instance : 0

Inside foo before eval.....
clk=1
dsine=0
data_out=180

Inside foo after eval.....
clk=0
dsine=0
data_out=180
=============inderjit_prs8bit_generator : New Iteration===========
Instance : 0

Inside foo before eval.....
clk=0
rst=0
out=0

Inside foo after eval.....
clk=1
rst=0
out=0
=============inderjit_digi_sinewave_generator : New Iteration===========
Instance : 0

Inside foo before eval.....
clk=0
dsine=0
data_out=180

Inside foo after eval.....
clk=1
dsine=0
data_out=0
=============inderjit_prs8bit_generator : New Iteration===========
Instance : 0

Inside foo before eval.....
clk=1
rst=0
out=0

Inside foo after eval.....
clk=1
rst=0
out=0
=============inderjit_digi_sinewave_generator : New Iteration===========
Instance : 0

Inside foo before eval.....
clk=1
dsine=0
data_out=0

Inside foo after eval.....
clk=1
dsine=0
data_out=0
=============inderjit_prs8bit_generator : New Iteration===========
Instance : 0

Inside foo before eval.....
clk=1
rst=0
out=0

Inside foo after eval.....
clk=1
rst=0
out=0
=============inderjit_digi_sinewave_generator : New Iteration===========
Instance : 0

Inside foo before eval.....
clk=1
dsine=0
data_out=0

Inside foo after eval.....
clk=1
dsine=0
data_out=0
=============inderjit_prs8bit_generator : New Iteration===========
Instance : 0

Inside foo before eval.....
clk=1
rst=0
out=0

Inside foo after eval.....
clk=0
rst=0
out=0
=============inderjit_digi_sinewave_generator : New Iteration===========
Instance : 0

Inside foo before eval.....
clk=1
dsine=0
data_out=0

Inside foo after eval.....
clk=0
dsine=0
data_out=0
=============inderjit_prs8bit_generator : New Iteration===========
Instance : 0

Inside foo before eval.....
clk=0
rst=0
out=0

Inside foo after eval.....
clk=1
rst=0
out=0
=============inderjit_digi_sinewave_generator : New Iteration===========
Instance : 0

Inside foo before eval.....
clk=0
dsine=0
data_out=0

Inside foo after eval.....
clk=1
dsine=0
data_out=76
=============inderjit_prs8bit_generator : New Iteration===========
Instance : 0

Inside foo before eval.....
clk=1
rst=0
out=0

Inside foo after eval.....
clk=1
rst=0
out=0
=============inderjit_digi_sinewave_generator : New Iteration===========
Instance : 0

Inside foo before eval.....
clk=1
dsine=0
data_out=76

Inside foo after eval.....
clk=1
dsine=0
data_out=76
=============inderjit_prs8bit_generator : New Iteration===========
Instance : 0

Inside foo before eval.....
clk=1
rst=0
out=0

Inside foo after eval.....
clk=1
rst=0
out=0
=============inderjit_digi_sinewave_generator : New Iteration===========
Instance : 0

Inside foo before eval.....
clk=1
dsine=0
data_out=76

Inside foo after eval.....
clk=1
dsine=0
data_out=76
=============inderjit_prs8bit_generator : New Iteration===========
Instance : 0

Inside foo before eval.....
clk=1
rst=0
out=0

Inside foo after eval.....
clk=0
rst=0
out=0
=============inderjit_digi_sinewave_generator : New Iteration===========
Instance : 0

Inside foo before eval.....
clk=1
dsine=0
data_out=76

Inside foo after eval.....
clk=0
dsine=0
data_out=76
=============inderjit_prs8bit_generator : New Iteration===========
Instance : 0

Inside foo before eval.....
clk=0
rst=0
out=0

Inside foo after eval.....
clk=1
rst=0
out=0
=============inderjit_digi_sinewave_generator : New Iteration===========
Instance : 0

Inside foo before eval.....
clk=0
dsine=0
data_out=76

Inside foo after eval.....
clk=1
dsine=0
data_out=141
=============inderjit_prs8bit_generator : New Iteration===========
Instance : 0

Inside foo before eval.....
clk=1
rst=0
out=0

Inside foo after eval.....
clk=1
rst=0
out=0
=============inderjit_digi_sinewave_generator : New Iteration===========
Instance : 0

Inside foo before eval.....
clk=1
dsine=0
data_out=141

Inside foo after eval.....
clk=1
dsine=0
data_out=141
=============inderjit_prs8bit_generator : New Iteration===========
Instance : 0

Inside foo before eval.....
clk=1
rst=0
out=0

Inside foo after eval.....
clk=1
rst=0
out=0
=============inderjit_digi_sinewave_generator : New Iteration===========
Instance : 0

Inside foo before eval.....
clk=1
dsine=0
data_out=141

Inside foo after eval.....
clk=1
dsine=0
data_out=141
=============inderjit_prs8bit_generator : New Iteration===========
Instance : 0

Inside foo before eval.....
clk=1
rst=0
out=0

Inside foo after eval.....
clk=0
rst=0
out=0
=============inderjit_digi_sinewave_generator : New Iteration===========
Instance : 0

Inside foo before eval.....
clk=1
dsine=0
data_out=141

Inside foo after eval.....
clk=0
dsine=0
data_out=141
=============inderjit_prs8bit_generator : New Iteration===========
Instance : 0

Inside foo before eval.....
clk=0
rst=0
out=0

Inside foo after eval.....
clk=1
rst=0
out=1
=============inderjit_digi_sinewave_generator : New Iteration===========
Instance : 0

Inside foo before eval.....
clk=0
dsine=0
data_out=141

Inside foo after eval.....
clk=1
dsine=0
data_out=185
=============inderjit_digi_sinewave_generator : New Iteration===========
Instance : 0

Inside foo before eval.....
clk=1
dsine=0
data_out=185

Inside foo after eval.....
clk=1
dsine=1
data_out=185
=============inderjit_prs8bit_generator : New Iteration===========
Instance : 0

Inside foo before eval.....
clk=1
rst=0
out=1

Inside foo after eval.....
clk=1
rst=0
out=1
=============inderjit_digi_sinewave_generator : New Iteration===========
Instance : 0

Inside foo before eval.....
clk=1
dsine=1
data_out=185

Inside foo after eval.....
clk=1
dsine=1
data_out=185
=============inderjit_prs8bit_generator : New Iteration===========
Instance : 0

Inside foo before eval.....
clk=1
rst=0
out=1

Inside foo after eval.....
clk=1
rst=0
out=1
=============inderjit_digi_sinewave_generator : New Iteration===========
Instance : 0

Inside foo before eval.....
clk=1
dsine=1
data_out=185

Inside foo after eval.....
clk=1
dsine=1
data_out=185
=============inderjit_prs8bit_generator : New Iteration===========
Instance : 0

Inside foo before eval.....
clk=1
rst=0
out=1

Inside foo after eval.....
clk=0
rst=0
out=1
=============inderjit_digi_sinewave_generator : New Iteration===========
Instance : 0

Inside foo before eval.....
clk=1
dsine=1
data_out=185

Inside foo after eval.....
clk=0
dsine=1
data_out=185
=============inderjit_prs8bit_generator : New Iteration===========
Instance : 0

Inside foo before eval.....
clk=0
rst=0
out=1

Inside foo after eval.....
clk=1
rst=0
out=1
=============inderjit_digi_sinewave_generator : New Iteration===========
Instance : 0

Inside foo before eval.....
clk=0
dsine=1
data_out=185

Inside foo after eval.....
clk=1
dsine=1
data_out=200
=============inderjit_prs8bit_generator : New Iteration===========
Instance : 0

Inside foo before eval.....
clk=1
rst=0
out=1

Inside foo after eval.....
clk=1
rst=0
out=1
=============inderjit_digi_sinewave_generator : New Iteration===========
Instance : 0

Inside foo before eval.....
clk=1
dsine=1
data_out=200

Inside foo after eval.....
clk=1
dsine=1
data_out=200
=============inderjit_prs8bit_generator : New Iteration===========
Instance : 0

Inside foo before eval.....
clk=1
rst=0
out=1

Inside foo after eval.....
clk=1
rst=0
out=1
=============inderjit_digi_sinewave_generator : New Iteration===========
Instance : 0

Inside foo before eval.....
clk=1
dsine=1
data_out=200

Inside foo after eval.....
clk=1
dsine=1
data_out=200
=============inderjit_prs8bit_generator : New Iteration===========
Instance : 0

Inside foo before eval.....
clk=1
rst=0
out=1

Inside foo after eval.....
clk=0
rst=0
out=1
=============inderjit_digi_sinewave_generator : New Iteration===========
Instance : 0

Inside foo before eval.....
clk=1
dsine=1
data_out=200

Inside foo after eval.....
clk=0
dsine=1
data_out=200
=============inderjit_prs8bit_generator : New Iteration===========
Instance : 0

Inside foo before eval.....
clk=0
rst=0
out=1

Inside foo after eval.....
clk=1
rst=0
out=1
=============inderjit_digi_sinewave_generator : New Iteration===========
Instance : 0

Inside foo before eval.....
clk=0
dsine=1
data_out=200

Inside foo after eval.....
clk=1
dsine=1
data_out=185
=============inderjit_prs8bit_generator : New Iteration===========
Instance : 0

Inside foo before eval.....
clk=1
rst=0
out=1

Inside foo after eval.....
clk=1
rst=0
out=1
=============inderjit_digi_sinewave_generator : New Iteration===========
Instance : 0

Inside foo before eval.....
clk=1
dsine=1
data_out=185

Inside foo after eval.....
clk=1
dsine=1
data_out=185
=============inderjit_prs8bit_generator : New Iteration===========
Instance : 0

Inside foo before eval.....
clk=1
rst=0
out=1

Inside foo after eval.....
clk=1
rst=0
out=1
=============inderjit_digi_sinewave_generator : New Iteration===========
Instance : 0

Inside foo before eval.....
clk=1
dsine=1
data_out=185

Inside foo after eval.....
clk=1
dsine=1
data_out=185
=============inderjit_prs8bit_generator : New Iteration===========
Instance : 0

Inside foo before eval.....
clk=1
rst=0
out=1

Inside foo after eval.....
clk=0
rst=0
out=1
=============inderjit_digi_sinewave_generator : New Iteration===========
Instance : 0

Inside foo before eval.....
clk=1
dsine=1
data_out=185

Inside foo after eval.....
clk=0
dsine=1
data_out=185
=============inderjit_prs8bit_generator : New Iteration===========
Instance : 0

Inside foo before eval.....
clk=0
rst=0
out=1

Inside foo after eval.....
clk=1
rst=0
out=1
=============inderjit_digi_sinewave_generator : New Iteration===========
Instance : 0

Inside foo before eval.....
clk=0
dsine=1
data_out=185

Inside foo after eval.....
clk=1
dsine=1
data_out=141
=============inderjit_prs8bit_generator : New Iteration===========
Instance : 0

Inside foo before eval.....
clk=1
rst=0
out=1

Inside foo after eval.....
clk=1
rst=0
out=1
=============inderjit_digi_sinewave_generator : New Iteration===========
Instance : 0

Inside foo before eval.....
clk=1
dsine=1
data_out=141

Inside foo after eval.....
clk=1
dsine=1
data_out=141
=============inderjit_prs8bit_generator : New Iteration===========
Instance : 0

Inside foo before eval.....
clk=1
rst=0
out=1

Inside foo after eval.....
clk=1
rst=0
out=1
=============inderjit_digi_sinewave_generator : New Iteration===========
Instance : 0

Inside foo before eval.....
clk=1
dsine=1
data_out=141

Inside foo after eval.....
clk=1
dsine=1
data_out=141
=============inderjit_prs8bit_generator : New Iteration===========
Instance : 0

Inside foo before eval.....
clk=1
rst=0
out=1

Inside foo after eval.....
clk=0
rst=0
out=1
=============inderjit_digi_sinewave_generator : New Iteration===========
Instance : 0

Inside foo before eval.....
clk=1
dsine=1
data_out=141

Inside foo after eval.....
clk=0
dsine=1
data_out=141
=============inderjit_prs8bit_generator : New Iteration===========
Instance : 0

Inside foo before eval.....
clk=0
rst=0
out=1

Inside foo after eval.....
clk=1
rst=0
out=0
=============inderjit_digi_sinewave_generator : New Iteration===========
Instance : 0

Inside foo before eval.....
clk=0
dsine=1
data_out=141

Inside foo after eval.....
clk=1
dsine=1
data_out=76
=============inderjit_digi_sinewave_generator : New Iteration===========
Instance : 0

Inside foo before eval.....
clk=1
dsine=1
data_out=76

Inside foo after eval.....
clk=1
dsine=0
data_out=76
=============inderjit_prs8bit_generator : New Iteration===========
Instance : 0

Inside foo before eval.....
clk=1
rst=0
out=0

Inside foo after eval.....
clk=1
rst=0
out=0
=============inderjit_digi_sinewave_generator : New Iteration===========
Instance : 0

Inside foo before eval.....
clk=1
dsine=0
data_out=76

Inside foo after eval.....
clk=1
dsine=0
data_out=76
=============inderjit_prs8bit_generator : New Iteration===========
Instance : 0

Inside foo before eval.....
clk=1
rst=0
out=0

Inside foo after eval.....
clk=1
rst=0
out=0
=============inderjit_digi_sinewave_generator : New Iteration===========
Instance : 0

Inside foo before eval.....
clk=1
dsine=0
data_out=76

Inside foo after eval.....
clk=1
dsine=0
data_out=76
=============inderjit_prs8bit_generator : New Iteration===========
Instance : 0

Inside foo before eval.....
clk=1
rst=0
out=0

Inside foo after eval.....
clk=0
rst=0
out=0
=============inderjit_digi_sinewave_generator : New Iteration===========
Instance : 0

Inside foo before eval.....
clk=1
dsine=0
data_out=76

Inside foo after eval.....
clk=0
dsine=0
data_out=76
=============inderjit_prs8bit_generator : New Iteration===========
Instance : 0

Inside foo before eval.....
clk=0
rst=0
out=0

Inside foo after eval.....
clk=1
rst=0
out=1
=============inderjit_digi_sinewave_generator : New Iteration===========
Instance : 0

Inside foo before eval.....
clk=0
dsine=0
data_out=76

Inside foo after eval.....
clk=1
dsine=0
data_out=0
=============inderjit_digi_sinewave_generator : New Iteration===========
Instance : 0

Inside foo before eval.....
clk=1
dsine=0
data_out=0

Inside foo after eval.....
clk=1
dsine=1
data_out=0
=============inderjit_prs8bit_generator : New Iteration===========
Instance : 0

Inside foo before eval.....
clk=1
rst=0
out=1

Inside foo after eval.....
clk=1
rst=0
out=1
=============inderjit_digi_sinewave_generator : New Iteration===========
Instance : 0

Inside foo before eval.....
clk=1
dsine=1
data_out=0

Inside foo after eval.....
clk=1
dsine=1
data_out=0

No. of Data Rows : 1447
ERROR: (internal)  This operation is not defined for display type PrinterOnly.
Can't open viewport for graphics.
ERROR: (internal)  This operation is not defined for display type PrinterOnly.
Can't open viewport for graphics.
ERROR: (internal)  This operation is not defined for display type PrinterOnly.
Can't open viewport for graphics.
ERROR: (internal)  This operation is not defined for display type PrinterOnly.
Can't open viewport for graphics.
binary raw file "/home/inderjitsingh/eSim_Mixed_signal_marathon_2022/digital_sine_wave/digital_sine_wave.raw"
Reducing trtol to 1 for xspice 'A' devices
Doing analysis at TEMP = 27.000000 and TNOM = 27.000000

Warning: v2: no DC value, transient time 0 value used
Warning: v1: no DC value, transient time 0 value used
No. of Data Columns : 47     
=============inderjit_prs8bit_generator : New Iteration===========
Instance : 1

Inside foo before eval.....
clk=0
rst=0
out=0

Inside foo after eval.....
clk=0
rst=0
out=0
=============inderjit_digi_sinewave_generator : New Iteration===========
Instance : 1

Inside foo before eval.....
clk=0
dsine=0
data_out=0

Inside foo after eval.....
clk=0
dsine=0
data_out=0
=============inderjit_digi_sinewave_generator : New Iteration===========
Instance : 1

Inside foo before eval.....
clk=0
dsine=0
data_out=0

Inside foo after eval.....
clk=0
dsine=0
data_out=0
=============inderjit_prs8bit_generator : New Iteration===========
Instance : 1

Inside foo before eval.....
clk=0
rst=0
out=0

Inside foo after eval.....
clk=0
rst=0
out=0

Initial Transient Solution
--------------------------

Node                                   Voltage
----                                   -------
clk                                          0
reset                                        0
dac_out                                      0
net-_l1-pad1_                                0
analog_out                                   0
x1.net-_r1-pad1_                             0
x1.net-_r1-pad2_                             0
x1.net-_r2-pad1_                             0
x1.net-_r3-pad1_                             0
x1.net-_r4-pad1_                             0
x1.net-_r5-pad1_                             0
x1.net-_r6-pad1_                             0
x1.net-_r7-pad1_                             0
x1.net-_r9-pad1_                             0
x1.net-_r10-pad1_                            0
x1.net-_r11-pad1_                            0
net-_u6-pad16_                               0
net-_u6-pad15_                               0
net-_u6-pad14_                               0
net-_u6-pad13_                               0
net-_u6-pad12_                               0
net-_u6-pad11_                               0
net-_u6-pad10_                               0
net-_u6-pad9_                                0
l1#branch                                    0
v2#branch                                    0
v1#branch                                    0
a.x1.a11#branch_1_0                          0
a.x1.a10#branch_1_0                          0
a.x1.a9#branch_1_0                           0
a.x1.a8#branch_1_0                           0
a.x1.a7#branch_1_0                           0
a.x1.a6#branch_1_0                           0
a.x1.a5#branch_1_0                           0
a.x1.a4#branch_1_0                           0
a.x1.a3#branch_1_0                           0
a.x1.a2#branch_1_0                           0
a.x1.a1#branch_1_0                           0
a4#branch_1_0                                0
a4#branch_1_1                                0
a4#branch_1_2                                0
a4#branch_1_3                                0
a4#branch_1_4                                0
a4#branch_1_5                                0
a4#branch_1_6                                0
a4#branch_1_7                                0

=============inderjit_prs8bit_generator : New Iteration===========
Instance : 1

Inside foo before eval.....
clk=0
rst=0
out=0

Inside foo after eval.....
clk=0
rst=1
out=0
=============inderjit_prs8bit_generator : New Iteration===========
Instance : 1

Inside foo before eval.....
clk=0
rst=1
out=0

Inside foo after eval.....
clk=0
rst=1
out=0
=============inderjit_prs8bit_generator : New Iteration===========
Instance : 1

Inside foo before eval.....
clk=0
rst=1
out=0

Inside foo after eval.....
clk=1
rst=1
out=0
=============inderjit_digi_sinewave_generator : New Iteration===========
Instance : 1

Inside foo before eval.....
clk=0
dsine=0
data_out=0

Inside foo after eval.....
clk=1
dsine=0
data_out=0
=============inderjit_prs8bit_generator : New Iteration===========
Instance : 1

Inside foo before eval.....
clk=1
rst=1
out=0

Inside foo after eval.....
clk=1
rst=1
out=0
=============inderjit_digi_sinewave_generator : New Iteration===========
Instance : 1

Inside foo before eval.....
clk=1
dsine=0
data_out=0

Inside foo after eval.....
clk=1
dsine=0
data_out=0
=============inderjit_prs8bit_generator : New Iteration===========
Instance : 1

Inside foo before eval.....
clk=1
rst=1
out=0

Inside foo after eval.....
clk=1
rst=1
out=0
=============inderjit_digi_sinewave_generator : New Iteration===========
Instance : 1

Inside foo before eval.....
clk=1
dsine=0
data_out=0

Inside foo after eval.....
clk=1
dsine=0
data_out=0
=============inderjit_prs8bit_generator : New Iteration===========
Instance : 1

Inside foo before eval.....
clk=1
rst=1
out=0

Inside foo after eval.....
clk=0
rst=1
out=0
=============inderjit_digi_sinewave_generator : New Iteration===========
Instance : 1

Inside foo before eval.....
clk=1
dsine=0
data_out=0

Inside foo after eval.....
clk=0
dsine=0
data_out=0
=============inderjit_prs8bit_generator : New Iteration===========
Instance : 1

Inside foo before eval.....
clk=0
rst=1
out=0

Inside foo after eval.....
clk=1
rst=1
out=0
=============inderjit_digi_sinewave_generator : New Iteration===========
Instance : 1

Inside foo before eval.....
clk=0
dsine=0
data_out=0

Inside foo after eval.....
clk=1
dsine=0
data_out=76
=============inderjit_prs8bit_generator : New Iteration===========
Instance : 1

Inside foo before eval.....
clk=1
rst=1
out=0

Inside foo after eval.....
clk=1
rst=1
out=0
=============inderjit_digi_sinewave_generator : New Iteration===========
Instance : 1

Inside foo before eval.....
clk=1
dsine=0
data_out=76

Inside foo after eval.....
clk=1
dsine=0
data_out=76
=============inderjit_prs8bit_generator : New Iteration===========
Instance : 1

Inside foo before eval.....
clk=1
rst=1
out=0

Inside foo after eval.....
clk=1
rst=1
out=0
=============inderjit_digi_sinewave_generator : New Iteration===========
Instance : 1

Inside foo before eval.....
clk=1
dsine=0
data_out=76

Inside foo after eval.....
clk=1
dsine=0
data_out=76
=============inderjit_prs8bit_generator : New Iteration===========
Instance : 1

Inside foo before eval.....
clk=1
rst=1
out=0

Inside foo after eval.....
clk=0
rst=1
out=0
=============inderjit_digi_sinewave_generator : New Iteration===========
Instance : 1

Inside foo before eval.....
clk=1
dsine=0
data_out=76

Inside foo after eval.....
clk=0
dsine=0
data_out=76
=============inderjit_prs8bit_generator : New Iteration===========
Instance : 1

Inside foo before eval.....
clk=0
rst=1
out=0

Inside foo after eval.....
clk=0
rst=1
out=0
=============inderjit_prs8bit_generator : New Iteration===========
Instance : 1

Inside foo before eval.....
clk=0
rst=1
out=0

Inside foo after eval.....
clk=0
rst=0
out=0
=============inderjit_prs8bit_generator : New Iteration===========
Instance : 1

Inside foo before eval.....
clk=0
rst=0
out=0

Inside foo after eval.....
clk=1
rst=0
out=0
=============inderjit_digi_sinewave_generator : New Iteration===========
Instance : 1

Inside foo before eval.....
clk=0
dsine=0
data_out=76

Inside foo after eval.....
clk=1
dsine=0
data_out=141
=============inderjit_prs8bit_generator : New Iteration===========
Instance : 1

Inside foo before eval.....
clk=1
rst=0
out=0

Inside foo after eval.....
clk=1
rst=0
out=0
=============inderjit_digi_sinewave_generator : New Iteration===========
Instance : 1

Inside foo before eval.....
clk=1
dsine=0
data_out=141

Inside foo after eval.....
clk=1
dsine=0
data_out=141
=============inderjit_prs8bit_generator : New Iteration===========
Instance : 1

Inside foo before eval.....
clk=1
rst=0
out=0

Inside foo after eval.....
clk=1
rst=0
out=0
=============inderjit_digi_sinewave_generator : New Iteration===========
Instance : 1

Inside foo before eval.....
clk=1
dsine=0
data_out=141

Inside foo after eval.....
clk=1
dsine=0
data_out=141
=============inderjit_prs8bit_generator : New Iteration===========
Instance : 1

Inside foo before eval.....
clk=1
rst=0
out=0

Inside foo after eval.....
clk=0
rst=0
out=0
=============inderjit_digi_sinewave_generator : New Iteration===========
Instance : 1

Inside foo before eval.....
clk=1
dsine=0
data_out=141

Inside foo after eval.....
clk=0
dsine=0
data_out=141
=============inderjit_prs8bit_generator : New Iteration===========
Instance : 1

Inside foo before eval.....
clk=0
rst=0
out=0

Inside foo after eval.....
clk=1
rst=0
out=1
=============inderjit_digi_sinewave_generator : New Iteration===========
Instance : 1

Inside foo before eval.....
clk=0
dsine=0
data_out=141

Inside foo after eval.....
clk=1
dsine=0
data_out=185
=============inderjit_digi_sinewave_generator : New Iteration===========
Instance : 1

Inside foo before eval.....
clk=1
dsine=0
data_out=185

Inside foo after eval.....
clk=1
dsine=1
data_out=185
=============inderjit_prs8bit_generator : New Iteration===========
Instance : 1

Inside foo before eval.....
clk=1
rst=0
out=1

Inside foo after eval.....
clk=1
rst=0
out=1
=============inderjit_digi_sinewave_generator : New Iteration===========
Instance : 1

Inside foo before eval.....
clk=1
dsine=1
data_out=185

Inside foo after eval.....
clk=1
dsine=1
data_out=185
=============inderjit_prs8bit_generator : New Iteration===========
Instance : 1

Inside foo before eval.....
clk=1
rst=0
out=1

Inside foo after eval.....
clk=1
rst=0
out=1
=============inderjit_digi_sinewave_generator : New Iteration===========
Instance : 1

Inside foo before eval.....
clk=1
dsine=1
data_out=185

Inside foo after eval.....
clk=1
dsine=1
data_out=185
=============inderjit_prs8bit_generator : New Iteration===========
Instance : 1

Inside foo before eval.....
clk=1
rst=0
out=1

Inside foo after eval.....
clk=0
rst=0
out=1
=============inderjit_digi_sinewave_generator : New Iteration===========
Instance : 1

Inside foo before eval.....
clk=1
dsine=1
data_out=185

Inside foo after eval.....
clk=0
dsine=1
data_out=185
=============inderjit_prs8bit_generator : New Iteration===========
Instance : 1

Inside foo before eval.....
clk=0
rst=0
out=1

Inside foo after eval.....
clk=1
rst=0
out=0
=============inderjit_digi_sinewave_generator : New Iteration===========
Instance : 1

Inside foo before eval.....
clk=0
dsine=1
data_out=185

Inside foo after eval.....
clk=1
dsine=1
data_out=200
=============inderjit_digi_sinewave_generator : New Iteration===========
Instance : 1

Inside foo before eval.....
clk=1
dsine=1
data_out=200

Inside foo after eval.....
clk=1
dsine=0
data_out=200
=============inderjit_prs8bit_generator : New Iteration===========
Instance : 1

Inside foo before eval.....
clk=1
rst=0
out=0

Inside foo after eval.....
clk=1
rst=0
out=0
=============inderjit_digi_sinewave_generator : New Iteration===========
Instance : 1

Inside foo before eval.....
clk=1
dsine=0
data_out=200

Inside foo after eval.....
clk=1
dsine=0
data_out=200
=============inderjit_prs8bit_generator : New Iteration===========
Instance : 1

Inside foo before eval.....
clk=1
rst=0
out=0

Inside foo after eval.....
clk=1
rst=0
out=0
=============inderjit_digi_sinewave_generator : New Iteration===========
Instance : 1

Inside foo before eval.....
clk=1
dsine=0
data_out=200

Inside foo after eval.....
clk=1
dsine=0
data_out=200
=============inderjit_prs8bit_generator : New Iteration===========
Instance : 1

Inside foo before eval.....
clk=1
rst=0
out=0

Inside foo after eval.....
clk=0
rst=0
out=0
=============inderjit_digi_sinewave_generator : New Iteration===========
Instance : 1

Inside foo before eval.....
clk=1
dsine=0
data_out=200

Inside foo after eval.....
clk=0
dsine=0
data_out=200
=============inderjit_prs8bit_generator : New Iteration===========
Instance : 1

[...]
clk=1
rst=0
out=0
=============inderjit_digi_sinewave_generator : New Iteration===========
Instance : 1

Inside foo before eval.....
clk=1
dsine=0
data_out=71

Inside foo after eval.....
clk=1
dsine=0
data_out=71
=============inderjit_prs8bit_generator : New Iteration===========
Instance : 1

Inside foo before eval.....
clk=1
rst=0
out=0

Inside foo after eval.....
clk=0
rst=0
out=0
=============inderjit_digi_sinewave_generator : New Iteration===========
Instance : 1

Inside foo before eval.....
clk=1
dsine=0
data_out=71

Inside foo after eval.....
clk=0
dsine=0
data_out=71
=============inderjit_prs8bit_generator : New Iteration===========
Instance : 1

Inside foo before eval.....
clk=0
rst=0
out=0

Inside foo after eval.....
clk=1
rst=0
out=0
=============inderjit_digi_sinewave_generator : New Iteration===========
Instance : 1

Inside foo before eval.....
clk=0
dsine=0
data_out=71

Inside foo after eval.....
clk=1
dsine=0
data_out=56
=============inderjit_prs8bit_generator : New Iteration===========
Instance : 1

Inside foo before eval.....
clk=1
rst=0
out=0

Inside foo after eval.....
clk=1
rst=0
out=0
=============inderjit_digi_sinewave_generator : New Iteration===========
Instance : 1

Inside foo before eval.....
clk=1
dsine=0
data_out=56

Inside foo after eval.....
clk=1
dsine=0
data_out=56
=============inderjit_prs8bit_generator : New Iteration===========
Instance : 1

Inside foo before eval.....
clk=1
rst=0
out=0

Inside foo after eval.....
clk=1
rst=0
out=0
=============inderjit_digi_sinewave_generator : New Iteration===========
Instance : 1

Inside foo before eval.....
clk=1
dsine=0
data_out=56

Inside foo after eval.....
clk=1
dsine=0
data_out=56
=============inderjit_prs8bit_generator : New Iteration===========
Instance : 1

Inside foo before eval.....
clk=1
rst=0
out=0

Inside foo after eval.....
clk=0
rst=0
out=0
=============inderjit_digi_sinewave_generator : New Iteration===========
Instance : 1

Inside foo before eval.....
clk=1
dsine=0
data_out=56

Inside foo after eval.....
clk=0
dsine=0
data_out=56
=============inderjit_prs8bit_generator : New Iteration===========
Instance : 1

Inside foo before eval.....
clk=0
rst=0
out=0

Inside foo after eval.....
clk=1
rst=0
out=0
=============inderjit_digi_sinewave_generator : New Iteration===========
Instance : 1

Inside foo before eval.....
clk=0
dsine=0
data_out=56

Inside foo after eval.....
clk=1
dsine=0
data_out=71
=============inderjit_prs8bit_generator : New Iteration===========
Instance : 1

Inside foo before eval.....
clk=1
rst=0
out=0

Inside foo after eval.....
clk=1
rst=0
out=0
=============inderjit_digi_sinewave_generator : New Iteration===========
Instance : 1

Inside foo before eval.....
clk=1
dsine=0
data_out=71

Inside foo after eval.....
clk=1
dsine=0
data_out=71
=============inderjit_prs8bit_generator : New Iteration===========
Instance : 1

Inside foo before eval.....
clk=1
rst=0
out=0

Inside foo after eval.....
clk=1
rst=0
out=0
=============inderjit_digi_sinewave_generator : New Iteration===========
Instance : 1

Inside foo before eval.....
clk=1
dsine=0
data_out=71

Inside foo after eval.....
clk=1
dsine=0
data_out=71
=============inderjit_prs8bit_generator : New Iteration===========
Instance : 1

Inside foo before eval.....
clk=1
rst=0
out=0

Inside foo after eval.....
clk=0
rst=0
out=0
=============inderjit_digi_sinewave_generator : New Iteration===========
Instance : 1

Inside foo before eval.....
clk=1
dsine=0
data_out=71

Inside foo after eval.....
clk=0
dsine=0
data_out=71
=============inderjit_prs8bit_generator : New Iteration===========
Instance : 1

Inside foo before eval.....
clk=0
rst=0
out=0

Inside foo after eval.....
clk=1
rst=0
out=0
=============inderjit_digi_sinewave_generator : New Iteration===========
Instance : 1

Inside foo before eval.....
clk=0
dsine=0
data_out=71

Inside foo after eval.....
clk=1
dsine=0
data_out=115
=============inderjit_prs8bit_generator : New Iteration===========
Instance : 1

Inside foo before eval.....
clk=1
rst=0
out=0

Inside foo after eval.....
clk=1
rst=0
out=0
=============inderjit_digi_sinewave_generator : New Iteration===========
Instance : 1

Inside foo before eval.....
clk=1
dsine=0
data_out=115

Inside foo after eval.....
clk=1
dsine=0
data_out=115
=============inderjit_prs8bit_generator : New Iteration===========
Instance : 1

Inside foo before eval.....
clk=1
rst=0
out=0

Inside foo after eval.....
clk=1
rst=0
out=0
=============inderjit_digi_sinewave_generator : New Iteration===========
Instance : 1

Inside foo before eval.....
clk=1
dsine=0
data_out=115

Inside foo after eval.....
clk=1
dsine=0
data_out=115
=============inderjit_prs8bit_generator : New Iteration===========
Instance : 1

Inside foo before eval.....
clk=1
rst=0
out=0

Inside foo after eval.....
clk=0
rst=0
out=0
=============inderjit_digi_sinewave_generator : New Iteration===========
Instance : 1

Inside foo before eval.....
clk=1
dsine=0
data_out=115

Inside foo after eval.....
clk=0
dsine=0
data_out=115
=============inderjit_prs8bit_generator : New Iteration===========
Instance : 1

Inside foo before eval.....
clk=0
rst=0
out=0

Inside foo after eval.....
clk=1
rst=0
out=0
=============inderjit_digi_sinewave_generator : New Iteration===========
Instance : 1

Inside foo before eval.....
clk=0
dsine=0
data_out=115

Inside foo after eval.....
clk=1
dsine=0
data_out=180
=============inderjit_prs8bit_generator : New Iteration===========
Instance : 1

Inside foo before eval.....
clk=1
rst=0
out=0

Inside foo after eval.....
clk=1
rst=0
out=0
=============inderjit_digi_sinewave_generator : New Iteration===========
Instance : 1

Inside foo before eval.....
clk=1
dsine=0
data_out=180

Inside foo after eval.....
clk=1
dsine=0
data_out=180
=============inderjit_prs8bit_generator : New Iteration===========
Instance : 1

Inside foo before eval.....
clk=1
rst=0
out=0

Inside foo after eval.....
clk=1
rst=0
out=0
=============inderjit_digi_sinewave_generator : New Iteration===========
Instance : 1

Inside foo before eval.....
clk=1
dsine=0
data_out=180

Inside foo after eval.....
clk=1
dsine=0
data_out=180
=============inderjit_prs8bit_generator : New Iteration===========
Instance : 1

Inside foo before eval.....
clk=1
rst=0
out=0

Inside foo after eval.....
clk=0
rst=0
out=0
=============inderjit_digi_sinewave_generator : New Iteration===========
Instance : 1

Inside foo before eval.....
clk=1
dsine=0
data_out=180

Inside foo after eval.....
clk=0
dsine=0
data_out=180
=============inderjit_prs8bit_generator : New Iteration===========
Instance : 1

Inside foo before eval.....
clk=0
rst=0
out=0

Inside foo after eval.....
clk=1
rst=0
out=0
=============inderjit_digi_sinewave_generator : New Iteration===========
Instance : 1

Inside foo before eval.....
clk=0
dsine=0
data_out=180

Inside foo after eval.....
clk=1
dsine=0
data_out=0
=============inderjit_prs8bit_generator : New Iteration===========
Instance : 1

Inside foo before eval.....
clk=1
rst=0
out=0

Inside foo after eval.....
clk=1
rst=0
out=0
=============inderjit_digi_sinewave_generator : New Iteration===========
Instance : 1

Inside foo before eval.....
clk=1
dsine=0
data_out=0

Inside foo after eval.....
clk=1
dsine=0
data_out=0
=============inderjit_prs8bit_generator : New Iteration===========
Instance : 1

Inside foo before eval.....
clk=1
rst=0
out=0

Inside foo after eval.....
clk=1
rst=0
out=0
=============inderjit_digi_sinewave_generator : New Iteration===========
Instance : 1

Inside foo before eval.....
clk=1
dsine=0
data_out=0

Inside foo after eval.....
clk=1
dsine=0
data_out=0
=============inderjit_prs8bit_generator : New Iteration===========
Instance : 1

Inside foo before eval.....
clk=1
rst=0
out=0

Inside foo after eval.....
clk=0
rst=0
out=0
=============inderjit_digi_sinewave_generator : New Iteration===========
Instance : 1

Inside foo before eval.....
clk=1
dsine=0
data_out=0

Inside foo after eval.....
clk=0
dsine=0
data_out=0
=============inderjit_prs8bit_generator : New Iteration===========
Instance : 1

Inside foo before eval.....
clk=0
rst=0
out=0

Inside foo after eval.....
clk=1
rst=0
out=0
=============inderjit_digi_sinewave_generator : New Iteration===========
Instance : 1

Inside foo before eval.....
clk=0
dsine=0
data_out=0

Inside foo after eval.....
clk=1
dsine=0
data_out=76
=============inderjit_prs8bit_generator : New Iteration===========
Instance : 1

Inside foo before eval.....
clk=1
rst=0
out=0

Inside foo after eval.....
clk=1
rst=0
out=0
=============inderjit_digi_sinewave_generator : New Iteration===========
Instance : 1

Inside foo before eval.....
clk=1
dsine=0
data_out=76

Inside foo after eval.....
clk=1
dsine=0
data_out=76
=============inderjit_prs8bit_generator : New Iteration===========
Instance : 1

Inside foo before eval.....
clk=1
rst=0
out=0

Inside foo after eval.....
clk=1
rst=0
out=0
=============inderjit_digi_sinewave_generator : New Iteration===========
Instance : 1

Inside foo before eval.....
clk=1
dsine=0
data_out=76

Inside foo after eval.....
clk=1
dsine=0
data_out=76
=============inderjit_prs8bit_generator : New Iteration===========
Instance : 1

Inside foo before eval.....
clk=1
rst=0
out=0

Inside foo after eval.....
clk=0
rst=0
out=0
=============inderjit_digi_sinewave_generator : New Iteration===========
Instance : 1

Inside foo before eval.....
clk=1
dsine=0
data_out=76

Inside foo after eval.....
clk=0
dsine=0
data_out=76
=============inderjit_prs8bit_generator : New Iteration===========
Instance : 1

Inside foo before eval.....
clk=0
rst=0
out=0

Inside foo after eval.....
clk=1
rst=0
out=0
=============inderjit_digi_sinewave_generator : New Iteration===========
Instance : 1

Inside foo before eval.....
clk=0
dsine=0
data_out=76

Inside foo after eval.....
clk=1
dsine=0
data_out=141
=============inderjit_prs8bit_generator : New Iteration===========
Instance : 1

Inside foo before eval.....
clk=1
rst=0
out=0

Inside foo after eval.....
clk=1
rst=0
out=0
=============inderjit_digi_sinewave_generator : New Iteration===========
Instance : 1

Inside foo before eval.....
clk=1
dsine=0
data_out=141

Inside foo after eval.....
clk=1
dsine=0
data_out=141
=============inderjit_prs8bit_generator : New Iteration===========
Instance : 1

Inside foo before eval.....
clk=1
rst=0
out=0

Inside foo after eval.....
clk=1
rst=0
out=0
=============inderjit_digi_sinewave_generator : New Iteration===========
Instance : 1

Inside foo before eval.....
clk=1
dsine=0
data_out=141

Inside foo after eval.....
clk=1
dsine=0
data_out=141
=============inderjit_prs8bit_generator : New Iteration===========
Instance : 1

Inside foo before eval.....
clk=1
rst=0
out=0

Inside foo after eval.....
clk=0
rst=0
out=0
=============inderjit_digi_sinewave_generator : New Iteration===========
Instance : 1

Inside foo before eval.....
clk=1
dsine=0
data_out=141

Inside foo after eval.....
clk=0
dsine=0
data_out=141
=============inderjit_prs8bit_generator : New Iteration===========
Instance : 1

Inside foo before eval.....
clk=0
rst=0
out=0

Inside foo after eval.....
clk=1
rst=0
out=1
=============inderjit_digi_sinewave_generator : New Iteration===========
Instance : 1

Inside foo before eval.....
clk=0
dsine=0
data_out=141

Inside foo after eval.....
clk=1
dsine=0
data_out=185
=============inderjit_digi_sinewave_generator : New Iteration===========
Instance : 1

Inside foo before eval.....
clk=1
dsine=0
data_out=185

Inside foo after eval.....
clk=1
dsine=1
data_out=185
=============inderjit_prs8bit_generator : New Iteration===========
Instance : 1

Inside foo before eval.....
clk=1
rst=0
out=1

Inside foo after eval.....
clk=1
rst=0
out=1
=============inderjit_digi_sinewave_generator : New Iteration===========
Instance : 1

Inside foo before eval.....
clk=1
dsine=1
data_out=185

Inside foo after eval.....
clk=1
dsine=1
data_out=185
=============inderjit_prs8bit_generator : New Iteration===========
Instance : 1

Inside foo before eval.....
clk=1
rst=0
out=1

Inside foo after eval.....
clk=1
rst=0
out=1
=============inderjit_digi_sinewave_generator : New Iteration===========
Instance : 1

Inside foo before eval.....
clk=1
dsine=1
data_out=185

Inside foo after eval.....
clk=1
dsine=1
data_out=185
=============inderjit_prs8bit_generator : New Iteration===========
Instance : 1

Inside foo before eval.....
clk=1
rst=0
out=1

Inside foo after eval.....
clk=0
rst=0
out=1
=============inderjit_digi_sinewave_generator : New Iteration===========
Instance : 1

Inside foo before eval.....
clk=1
dsine=1
data_out=185

Inside foo after eval.....
clk=0
dsine=1
data_out=185
=============inderjit_prs8bit_generator : New Iteration===========
Instance : 1

Inside foo before eval.....
clk=0
rst=0
out=1

Inside foo after eval.....
clk=1
rst=0
out=1
=============inderjit_digi_sinewave_generator : New Iteration===========
Instance : 1

Inside foo before eval.....
clk=0
dsine=1
data_out=185

Inside foo after eval.....
clk=1
dsine=1
data_out=200
=============inderjit_prs8bit_generator : New Iteration===========
Instance : 1

Inside foo before eval.....
clk=1
rst=0
out=1

Inside foo after eval.....
clk=1
rst=0
out=1
=============inderjit_digi_sinewave_generator : New Iteration===========
Instance : 1

Inside foo before eval.....
clk=1
dsine=1
data_out=200

Inside foo after eval.....
clk=1
dsine=1
data_out=200
=============inderjit_prs8bit_generator : New Iteration===========
Instance : 1

Inside foo before eval.....
clk=1
rst=0
out=1

Inside foo after eval.....
clk=1
rst=0
out=1
=============inderjit_digi_sinewave_generator : New Iteration===========
Instance : 1

Inside foo before eval.....
clk=1
dsine=1
data_out=200

Inside foo after eval.....
clk=1
dsine=1
data_out=200
=============inderjit_prs8bit_generator : New Iteration===========
Instance : 1

Inside foo before eval.....
clk=1
rst=0
out=1

Inside foo after eval.....
clk=0
rst=0
out=1
=============inderjit_digi_sinewave_generator : New Iteration===========
Instance : 1

Inside foo before eval.....
clk=1
dsine=1
data_out=200

Inside foo after eval.....
clk=0
dsine=1
data_out=200
=============inderjit_prs8bit_generator : New Iteration===========
Instance : 1

Inside foo before eval.....
clk=0
rst=0
out=1

Inside foo after eval.....
clk=1
rst=0
out=1
=============inderjit_digi_sinewave_generator : New Iteration===========
Instance : 1

Inside foo before eval.....
clk=0
dsine=1
data_out=200

Inside foo after eval.....
clk=1
dsine=1
data_out=185
=============inderjit_prs8bit_generator : New Iteration===========
Instance : 1

Inside foo before eval.....
clk=1
rst=0
out=1

Inside foo after eval.....
clk=1
rst=0
out=1
=============inderjit_digi_sinewave_generator : New Iteration===========
Instance : 1

Inside foo before eval.....
clk=1
dsine=1
data_out=185

Inside foo after eval.....
clk=1
dsine=1
data_out=185
=============inderjit_prs8bit_generator : New Iteration===========
Instance : 1

Inside foo before eval.....
clk=1
rst=0
out=1

Inside foo after eval.....
clk=1
rst=0
out=1
=============inderjit_digi_sinewave_generator : New Iteration===========
Instance : 1

Inside foo before eval.....
clk=1
dsine=1
data_out=185

Inside foo after eval.....
clk=1
dsine=1
data_out=185
=============inderjit_prs8bit_generator : New Iteration===========
Instance : 1

Inside foo before eval.....
clk=1
rst=0
out=1

Inside foo after eval.....
clk=0
rst=0
out=1
=============inderjit_digi_sinewave_generator : New Iteration===========
Instance : 1

Inside foo before eval.....
clk=1
dsine=1
data_out=185

Inside foo after eval.....
clk=0
dsine=1
data_out=185
=============inderjit_prs8bit_generator : New Iteration===========
Instance : 1

Inside foo before eval.....
clk=0
rst=0
out=1

Inside foo after eval.....
clk=1
rst=0
out=1
=============inderjit_digi_sinewave_generator : New Iteration===========
Instance : 1

Inside foo before eval.....
clk=0
dsine=1
data_out=185

Inside foo after eval.....
clk=1
dsine=1
data_out=141
=============inderjit_prs8bit_generator : New Iteration===========
Instance : 1

Inside foo before eval.....
clk=1
rst=0
out=1

Inside foo after eval.....
clk=1
rst=0
out=1
=============inderjit_digi_sinewave_generator : New Iteration===========
Instance : 1

Inside foo before eval.....
clk=1
dsine=1
data_out=141

Inside foo after eval.....
clk=1
dsine=1
data_out=141
=============inderjit_prs8bit_generator : New Iteration===========
Instance : 1

Inside foo before eval.....
clk=1
rst=0
out=1

Inside foo after eval.....
clk=1
rst=0
out=1
=============inderjit_digi_sinewave_generator : New Iteration===========
Instance : 1

Inside foo before eval.....
clk=1
dsine=1
data_out=141

Inside foo after eval.....
clk=1
dsine=1
data_out=141
=============inderjit_prs8bit_generator : New Iteration===========
Instance : 1

Inside foo before eval.....
clk=1
rst=0
out=1

Inside foo after eval.....
clk=0
rst=0
out=1
=============inderjit_digi_sinewave_generator : New Iteration===========
Instance : 1

Inside foo before eval.....
clk=1
dsine=1
data_out=141

Inside foo after eval.....
clk=0
dsine=1
data_out=141
=============inderjit_prs8bit_generator : New Iteration===========
Instance : 1

Inside foo before eval.....
clk=0
rst=0
out=1

Inside foo after eval.....
clk=1
rst=0
out=0
=============inderjit_digi_sinewave_generator : New Iteration===========
Instance : 1

Inside foo before eval.....
clk=0
dsine=1
data_out=141

Inside foo after eval.....
clk=1
dsine=1
data_out=76
=============inderjit_digi_sinewave_generator : New Iteration===========
Instance : 1

Inside foo before eval.....
clk=1
dsine=1
data_out=76

Inside foo after eval.....
clk=1
dsine=0
data_out=76
=============inderjit_prs8bit_generator : New Iteration===========
Instance : 1

Inside foo before eval.....
clk=1
rst=0
out=0

Inside foo after eval.....
clk=1
rst=0
out=0
=============inderjit_digi_sinewave_generator : New Iteration===========
Instance : 1

Inside foo before eval.....
clk=1
dsine=0
data_out=76

Inside foo after eval.....
clk=1
dsine=0
data_out=76
=============inderjit_prs8bit_generator : New Iteration===========
Instance : 1

Inside foo before eval.....
clk=1
rst=0
out=0

Inside foo after eval.....
clk=1
rst=0
out=0
=============inderjit_digi_sinewave_generator : New Iteration===========
Instance : 1

Inside foo before eval.....
clk=1
dsine=0
data_out=76

Inside foo after eval.....
clk=1
dsine=0
data_out=76
=============inderjit_prs8bit_generator : New Iteration===========
Instance : 1

Inside foo before eval.....
clk=1
rst=0
out=0

Inside foo after eval.....
clk=0
rst=0
out=0
=============inderjit_digi_sinewave_generator : New Iteration===========
Instance : 1

Inside foo before eval.....
clk=1
dsine=0
data_out=76

Inside foo after eval.....
clk=0
dsine=0
data_out=76
=============inderjit_prs8bit_generator : New Iteration===========
Instance : 1

Inside foo before eval.....
clk=0
rst=0
out=0

Inside foo after eval.....
clk=1
rst=0
out=1
=============inderjit_digi_sinewave_generator : New Iteration===========
Instance : 1

Inside foo before eval.....
clk=0
dsine=0
data_out=76

Inside foo after eval.....
clk=1
dsine=0
data_out=0
=============inderjit_digi_sinewave_generator : New Iteration===========
Instance : 1

Inside foo before eval.....
clk=1
dsine=0
data_out=0

Inside foo after eval.....
clk=1
dsine=1
data_out=0
=============inderjit_prs8bit_generator : New Iteration===========
Instance : 1

Inside foo before eval.....
clk=1
rst=0
out=1

Inside foo after eval.....
clk=1
rst=0
out=1
=============inderjit_digi_sinewave_generator : New Iteration===========
Instance : 1

Inside foo before eval.....
clk=1
dsine=1
data_out=0

Inside foo after eval.....
clk=1
dsine=1
data_out=0

No. of Data Rows : 1447

Total analysis time (seconds) = 0.100204

Total CPU time (seconds) = 0.976 

Total DRAM available = 257855.305 MB.
DRAM currently available = 228239.703 MB.
Maximum ngspice program size =   90.191 MB.
Current ngspice program size =   12.684 MB.

Shared ngspice pages =    9.590 MB.
Text (code) pages =    6.285 MB.
Stack = 0 bytes.
Library pages =    3.734 MB.

