
No compatibility mode selected!


Circuit: * /home/inderjitsingh/esim_mixed_signal_marathon_2022/digital_sine_wave/digital_sine_wave.cir

Reducing trtol to 1 for xspice 'A' devices
Doing analysis at TEMP = 27.000000 and TNOM = 27.000000

Warning: v2: no DC value, transient time 0 value used
Warning: v1: no DC value, transient time 0 value used
=============inderjit_prs8bit_generator : New Iteration===========
Instance : 0

Inside foo before eval.....
clk=0
rst=0
out=0

Inside foo after eval.....
clk=0
rst=0
out=0
=============inderjit_d_sine : New Iteration===========
Instance : 0

Inside foo before eval.....
clk=0
dsine=0
data_out=0

Inside foo after eval.....
clk=0
dsine=0
data_out=0
=============inderjit_d_sine : New Iteration===========
Instance : 0

Inside foo before eval.....
clk=0
dsine=0
data_out=0

Inside foo after eval.....
clk=0
dsine=0
data_out=0
=============inderjit_prs8bit_generator : New Iteration===========
Instance : 0

Inside foo before eval.....
clk=0
rst=0
out=0

Inside foo after eval.....
clk=0
rst=0
out=0

Initial Transient Solution
--------------------------

Node                                   Voltage
----                                   -------
clk                                          0
reset                                        0
dac_out                                      0
net-_l1-pad1_                                0
analog_out                                   0
x1.net-_r1-pad1_                             0
x1.net-_r1-pad2_                             0
x1.net-_r2-pad1_                             0
x1.net-_r3-pad1_                             0
x1.net-_r4-pad1_                             0
x1.net-_r5-pad1_                             0
x1.net-_r6-pad1_                             0
x1.net-_r7-pad1_                             0
x1.net-_r9-pad1_                             0
x1.net-_r10-pad1_                            0
x1.net-_r11-pad1_                            0
net-_u6-pad16_                               0
net-_u6-pad15_                               0
net-_u6-pad14_                               0
net-_u6-pad13_                               0
net-_u6-pad12_                               0
net-_u6-pad11_                               0
net-_u6-pad10_                               0
net-_u6-pad9_                                0
l1#branch                                    0
v2#branch                                    0
v1#branch                                    0
a.x1.a11#branch_1_0                          0
a.x1.a10#branch_1_0                          0
a.x1.a9#branch_1_0                           0
a.x1.a8#branch_1_0                           0
a.x1.a7#branch_1_0                           0
a.x1.a6#branch_1_0                           0
a.x1.a5#branch_1_0                           0
a.x1.a4#branch_1_0                           0
a.x1.a3#branch_1_0                           0
a.x1.a2#branch_1_0                           0
a.x1.a1#branch_1_0                           0
a3#branch_1_0                                0
a3#branch_1_1                                0
a3#branch_1_2                                0
a3#branch_1_3                                0
a3#branch_1_4                                0
a3#branch_1_5                                0
a3#branch_1_6                                0
a3#branch_1_7                                0

=============inderjit_prs8bit_generator : New Iteration===========
Instance : 0

Inside foo before eval.....
clk=0
rst=0
out=0

Inside foo after eval.....
clk=0
rst=1
out=0
=============inderjit_prs8bit_generator : New Iteration===========
Instance : 0

Inside foo before eval.....
clk=0
rst=1
out=0

Inside foo after eval.....
clk=0
rst=1
out=0
=============inderjit_prs8bit_generator : New Iteration===========
Instance : 0

Inside foo before eval.....
clk=0
rst=1
out=0

Inside foo after eval.....
clk=1
rst=1
out=0
=============inderjit_d_sine : New Iteration===========
Instance : 0

Inside foo before eval.....
clk=0
dsine=0
data_out=0

Inside foo after eval.....
clk=1
dsine=0
data_out=0
=============inderjit_prs8bit_generator : New Iteration===========
Instance : 0

Inside foo before eval.....
clk=1
rst=1
out=0

Inside foo after eval.....
clk=1
rst=1
out=0
=============inderjit_d_sine : New Iteration===========
Instance : 0

Inside foo before eval.....
clk=1
dsine=0
data_out=0

Inside foo after eval.....
clk=1
dsine=0
data_out=0
=============inderjit_prs8bit_generator : New Iteration===========
Instance : 0

Inside foo before eval.....
clk=1
rst=1
out=0

Inside foo after eval.....
clk=1
rst=1
out=0
=============inderjit_d_sine : New Iteration===========
Instance : 0

Inside foo before eval.....
clk=1
dsine=0
data_out=0

Inside foo after eval.....
clk=1
dsine=0
data_out=0
=============inderjit_prs8bit_generator : New Iteration===========
Instance : 0

Inside foo before eval.....
clk=1
rst=1
out=0

Inside foo after eval.....
clk=0
rst=1
out=0
=============inderjit_d_sine : New Iteration===========
Instance : 0

Inside foo before eval.....
clk=1
dsine=0
data_out=0

Inside foo after eval.....
clk=0
dsine=0
data_out=0
=============inderjit_prs8bit_generator : New Iteration===========
Instance : 0

Inside foo before eval.....
clk=0
rst=1
out=0

Inside foo after eval.....
clk=1
rst=1
out=0
=============inderjit_d_sine : New Iteration===========
Instance : 0

Inside foo before eval.....
clk=0
dsine=0
data_out=0

Inside foo after eval.....
clk=1
dsine=0
data_out=2
=============inderjit_prs8bit_generator : New Iteration===========
Instance : 0

Inside foo before eval.....
clk=1
rst=1
out=0

Inside foo after eval.....
clk=1
rst=1
out=0
=============inderjit_d_sine : New Iteration===========
Instance : 0

Inside foo before eval.....
clk=1
dsine=0
data_out=2

Inside foo after eval.....
clk=1
dsine=0
data_out=2
=============inderjit_prs8bit_generator : New Iteration===========
Instance : 0

Inside foo before eval.....
clk=1
rst=1
out=0

Inside foo after eval.....
clk=1
rst=1
out=0
=============inderjit_d_sine : New Iteration===========
Instance : 0

Inside foo before eval.....
clk=1
dsine=0
data_out=2

Inside foo after eval.....
clk=1
dsine=0
data_out=2
=============inderjit_prs8bit_generator : New Iteration===========
Instance : 0

Inside foo before eval.....
clk=1
rst=1
out=0

Inside foo after eval.....
clk=0
rst=1
out=0
=============inderjit_d_sine : New Iteration===========
Instance : 0

Inside foo before eval.....
clk=1
dsine=0
data_out=2

Inside foo after eval.....
clk=0
dsine=0
data_out=2
=============inderjit_prs8bit_generator : New Iteration===========
Instance : 0

Inside foo before eval.....
clk=0
rst=1
out=0

Inside foo after eval.....
clk=0
rst=1
out=0
=============inderjit_prs8bit_generator : New Iteration===========
Instance : 0

Inside foo before eval.....
clk=0
rst=1
out=0

Inside foo after eval.....
clk=0
rst=0
out=0
=============inderjit_prs8bit_generator : New Iteration===========
Instance : 0

Inside foo before eval.....
clk=0
rst=0
out=0

Inside foo after eval.....
clk=1
rst=0
out=0
=============inderjit_d_sine : New Iteration===========
Instance : 0

Inside foo before eval.....
clk=0
dsine=0
data_out=2

Inside foo after eval.....
clk=1
dsine=0
data_out=5
=============inderjit_prs8bit_generator : New Iteration===========
Instance : 0

Inside foo before eval.....
clk=1
rst=0
out=0

Inside foo after eval.....
clk=1
rst=0
out=0
=============inderjit_d_sine : New Iteration===========
Instance : 0

Inside foo before eval.....
clk=1
dsine=0
data_out=5

Inside foo after eval.....
clk=1
dsine=0
data_out=5
=============inderjit_prs8bit_generator : New Iteration===========
Instance : 0

Inside foo before eval.....
clk=1
rst=0
out=0

Inside foo after eval.....
clk=1
rst=0
out=0
=============inderjit_d_sine : New Iteration===========
Instance : 0

Inside foo before eval.....
clk=1
dsine=0
data_out=5

Inside foo after eval.....
clk=1
dsine=0
data_out=5
=============inderjit_prs8bit_generator : New Iteration===========
Instance : 0

Inside foo before eval.....
clk=1
rst=0
out=0

Inside foo after eval.....
clk=0
rst=0
out=0
=============inderjit_d_sine : New Iteration===========
Instance : 0

Inside foo before eval.....
clk=1
dsine=0
data_out=5

Inside foo after eval.....
clk=0
dsine=0
data_out=5
=============inderjit_prs8bit_generator : New Iteration===========
Instance : 0

Inside foo before eval.....
clk=0
rst=0
out=0

Inside foo after eval.....
clk=1
rst=0
out=1
=============inderjit_d_sine : New Iteration===========
Instance : 0

Inside foo before eval.....
clk=0
dsine=0
data_out=5

Inside foo after eval.....
clk=1
dsine=0
data_out=7
=============inderjit_d_sine : New Iteration===========
Instance : 0

Inside foo before eval.....
clk=1
dsine=0
data_out=7

Inside foo after eval.....
clk=1
dsine=1
data_out=7
=============inderjit_prs8bit_generator : New Iteration===========
Instance : 0

Inside foo before eval.....
clk=1
rst=0
out=1

Inside foo after eval.....
clk=1
rst=0
out=1
=============inderjit_d_sine : New Iteration===========
Instance : 0

Inside foo before eval.....
clk=1
dsine=1
data_out=7

Inside foo after eval.....
clk=1
dsine=1
data_out=7
=============inderjit_prs8bit_generator : New Iteration===========
Instance : 0

Inside foo before eval.....
clk=1
rst=0
out=1

Inside foo after eval.....
clk=1
rst=0
out=1
=============inderjit_d_sine : New Iteration===========
Instance : 0

Inside foo before eval.....
clk=1
dsine=1
data_out=7

Inside foo after eval.....
clk=1
dsine=1
data_out=7
=============inderjit_prs8bit_generator : New Iteration===========
Instance : 0

Inside foo before eval.....
clk=1
rst=0
out=1

Inside foo after eval.....
clk=0
rst=0
out=1
=============inderjit_d_sine : New Iteration===========
Instance : 0

Inside foo before eval.....
clk=1
dsine=1
data_out=7

Inside foo after eval.....
clk=0
dsine=1
data_out=7
=============inderjit_prs8bit_generator : New Iteration===========
Instance : 0

Inside foo before eval.....
clk=0
rst=0
out=1

Inside foo after eval.....
clk=1
rst=0
out=0
=============inderjit_d_sine : New Iteration===========
Instance : 0

Inside foo before eval.....
clk=0
dsine=1
data_out=7

Inside foo after eval.....
clk=1
dsine=1
data_out=10
=============inderjit_d_sine : New Iteration===========
Instance : 0

Inside foo before eval.....
clk=1
dsine=1
data_out=10

Inside foo after eval.....
clk=1
dsine=0
data_out=10
=============inderjit_prs8bit_generator : New Iteration===========
Instance : 0

Inside foo before eval.....
clk=1
rst=0
out=0

Inside foo after eval.....
clk=1
rst=0
out=0
=============inderjit_d_sine : New Iteration===========
Instance : 0

Inside foo before eval.....
clk=1
dsine=0
data_out=10

Inside foo after eval.....
clk=1
dsine=0
data_out=10
=============inderjit_prs8bit_generator : New Iteration===========
Instance : 0

Inside foo before eval.....
clk=1
rst=0
out=0

Inside foo after eval.....
clk=1
rst=0
out=0
=============inderjit_d_sine : New Iteration===========
Instance : 0

Inside foo before eval.....
clk=1
dsine=0
data_out=10

Inside foo after eval.....
clk=1
dsine=0
data_out=10
=============inderjit_prs8bit_generator : New Iteration===========
Instance : 0

Inside foo before eval.....
clk=1
rst=0
out=0

Inside foo after eval.....
clk=0
rst=0
out=0
=============inderjit_d_sine : New Iteration===========
Instance : 0

Inside foo before eval.....
clk=1
dsine=0
data_out=10

Inside foo after eval.....
clk=0
dsine=0
data_out=10
=============inderjit_prs8bit_generator : New Iteration===========
Instance : 0

Inside foo before eval.....
clk=0
rst=0
out=0

Inside foo after eval.....
clk=1
rst=0
out=1
=============inderjit_d_sine : New Iteration===========
Instance : 0

Inside foo before eval.....
clk=0
dsine=0
data_out=10

Inside foo after eval.....
clk=1
dsine=0
data_out=12
=============inderjit_d_sine : New Iteration===========
Instance : 0

Inside foo before eval.....
clk=1
dsine=0
data_out=12

Inside foo after eval.....
clk=1
dsine=1
data_out=12
=============inderjit_prs8bit_generator : New Iteration===========
Instance : 0

Inside foo before eval.....
clk=1
rst=0
out=1

Inside foo after eval.....
clk=1
rst=0
out=1
=============inderjit_d_sine : New Iteration===========
Instance : 0

Inside foo before eval.....
clk=1
dsine=1
data_out=12

Inside foo after eval.....
clk=1
dsine=1
data_out=12
=============inderjit_prs8bit_generator : New Iteration===========
Instance : 0

Inside foo before eval.....
clk=1
rst=0
out=1

Inside foo after eval.....
clk=1
rst=0
out=1
=============inderjit_d_sine : New Iteration===========
Instance : 0

Inside foo before eval.....
clk=1
dsine=1
data_out=12

Inside foo after eval.....
clk=1
dsine=1
data_out=12
=============inderjit_prs8bit_generator : New Iteration===========
Instance : 0

Inside foo before eval.....
clk=1
rst=0
out=1

Inside foo after eval.....
clk=0
rst=0
out=1
=============inderjit_d_sine : New Iteration===========
Instance : 0

Inside foo before eval.....
clk=1
dsine=1
data_out=12

Inside foo after eval.....
clk=0
dsine=1
data_out=12
=============inderjit_prs8bit_generator : New Iteration===========
Instance : 0

Inside foo before eval.....
clk=0
rst=0
out=1

Inside foo after eval.....
clk=1
rst=0
out=0
=============inderjit_d_sine : New Iteration===========
Instance : 0

Inside foo before eval.....
clk=0
dsine=1
data_out=12

Inside foo after eval.....
clk=1
dsine=1
data_out=15
=============inderjit_d_sine : New Iteration===========
Instance : 0

Inside foo before eval.....
clk=1
dsine=1
data_out=15

Inside foo after eval.....
clk=1
dsine=0
data_out=15
=============inderjit_prs8bit_generator : New Iteration===========
Instance : 0

Inside foo before eval.....
clk=1
rst=0
out=0

Inside foo after eval.....
clk=1
rst=0
out=0
=============inderjit_d_sine : New Iteration===========
Instance : 0

Inside foo before eval.....
clk=1
dsine=0
data_out=15

Inside foo after eval.....
clk=1
dsine=0
data_out=15
=============inderjit_prs8bit_generator : New Iteration===========
Instance : 0

Inside foo before eval.....
clk=1
rst=0
out=0

Inside foo after eval.....
clk=1
rst=0
out=0
=============inderjit_d_sine : New Iteration===========
Instance : 0

Inside foo before eval.....
clk=1
dsine=0
data_out=15

Inside foo after eval.....
clk=1
dsine=0
data_out=15
=============inderjit_prs8bit_generator : New Iteration===========
Instance : 0

Inside foo before eval.....
clk=1
rst=0
out=0

Inside foo after eval.....
clk=0
rst=0
out=0
=============inderjit_d_sine : New Iteration===========
Instance : 0

Inside foo before eval.....
clk=1
dsine=0
data_out=15

Inside foo after eval.....
clk=0
dsine=0
data_out=15
=============inderjit_prs8bit_generator : New Iteration===========
Instance : 0

Inside foo before eval.....
clk=0
rst=0
out=0

Inside foo after eval.....
clk=1
rst=0
out=1
=============inderjit_d_sine : New Iteration===========
Instance : 0

Inside foo before eval.....
clk=0
dsine=0
data_out=15

Inside foo after eval.....
clk=1
dsine=0
data_out=17
=============inderjit_d_sine : New Iteration===========
Instance : 0

Inside foo before eval.....
clk=1
dsine=0
data_out=17

Inside foo after eval.....
clk=1
dsine=1
data_out=17
=============inderjit_prs8bit_generator : New Iteration===========
Instance : 0

Inside foo before eval.....
clk=1
rst=0
out=1

Inside foo after eval.....
clk=1
rst=0
out=1
=============inderjit_d_sine : New Iteration===========
Instance : 0

Inside foo before eval.....
clk=1
dsine=1
data_out=17

Inside foo after eval.....
clk=1
dsine=1
data_out=17
=============inderjit_prs8bit_generator : New Iteration===========
Instance : 0

Inside foo before eval.....
clk=1
rst=0
out=1

Inside foo after eval.....
clk=1
rst=0
out=1
=============inderjit_d_sine : New Iteration===========
Instance : 0

Inside foo before eval.....
clk=1
dsine=1
data_out=17

Inside foo after eval.....
clk=1
dsine=1
data_out=17
=============inderjit_prs8bit_generator : New Iteration===========
Instance : 0

Inside foo before eval.....
clk=1
rst=0
out=1

Inside foo after eval.....
clk=0
rst=0
out=1
=============inderjit_d_sine : New Iteration===========
Instance : 0

Inside foo before eval.....
clk=1
dsine=1
data_out=17

Inside foo after eval.....
clk=0
dsine=1
data_out=17
=============inderjit_prs8bit_generator : New Iteration===========
Instance : 0

Inside foo before eval.....
clk=0
rst=0
out=1

Inside foo after eval.....
clk=1
rst=0
out=0
=============inderjit_d_sine : New Iteration===========
Instance : 0

Inside foo before eval.....
clk=0
dsine=1
data_out=17

Inside foo after eval.....
clk=1
dsine=1
data_out=19
=============inderjit_d_sine : New Iteration===========
Instance : 0

Inside foo before eval.....
clk=1
dsine=1
data_out=19

Inside foo after eval.....
clk=1
dsine=0
data_out=19
=============inderjit_prs8bit_generator : New Iteration===========
Instance : 0

Inside foo before eval.....
clk=1
rst=0
out=0

Inside foo after eval.....
clk=1
rst=0
out=0
=============inderjit_d_sine : New Iteration===========
Instance : 0

Inside foo before eval.....
clk=1
dsine=0
data_out=19

Inside foo after eval.....
clk=1
dsine=0
data_out=19
=============inderjit_prs8bit_generator : New Iteration===========
Instance : 0

Inside foo before eval.....
clk=1
rst=0
out=0

Inside foo after eval.....
clk=1
rst=0
out=0
=============inderjit_d_sine : New Iteration===========
Instance : 0

Inside foo before eval.....
clk=1
dsine=0
data_out=19

Inside foo after eval.....
clk=1
dsine=0
data_out=19
=============inderjit_prs8bit_generator : New Iteration===========
Instance : 0

Inside foo before eval.....
clk=1
rst=0
out=0

Inside foo after eval.....
clk=0
rst=0
out=0
=============inderjit_d_sine : New Iteration===========
Instance : 0

Inside foo before eval.....
clk=1
dsine=0
data_out=19

Inside foo after eval.....
clk=0
dsine=0
data_out=19
=============inderjit_prs8bit_generator : New Iteration===========
Instance : 0

Inside foo before eval.....
clk=0
rst=0
out=0

Inside foo after eval.....
clk=1
rst=0
out=1
=============inderjit_d_sine : New Iteration===========
Instance : 0

Inside foo before eval.....
clk=0
dsine=0
data_out=19

Inside foo after eval.....
clk=1
dsine=0
data_out=22
=============inderjit_d_sine : New Iteration===========
Instance : 0

Inside foo before eval.....
clk=1
dsine=0
data_out=22

Inside foo after eval.....
clk=1
dsine=1
data_out=22
=============inderjit_prs8bit_generator : New Iteration===========
Instance : 0

Inside foo before eval.....
clk=1
rst=0
out=1

Inside foo after eval.....
clk=1
rst=0
out=1
=============inderjit_d_sine : New Iteration===========
Instance : 0

Inside foo before eval.....
clk=1
dsine=1
data_out=22

Inside foo after eval.....
clk=1
dsine=1
data_out=22
=============inderjit_prs8bit_generator : New Iteration===========
Instance : 0

Inside foo before eval.....
clk=1
rst=0
out=1

Inside foo after eval.....
clk=1
rst=0
out=1
=============inderjit_d_sine : New Iteration===========
Instance : 0

Inside foo before eval.....
clk=1
dsine=1
data_out=22

Inside foo after eval.....
clk=1
dsine=1
data_out=22
=============inderjit_prs8bit_generator : New Iteration===========
Instance : 0

Inside foo before eval.....
clk=1
rst=0
out=1

Inside foo after eval.....
clk=0
rst=0
out=1
=============inderjit_d_sine : New Iteration===========
Instance : 0

Inside foo before eval.....
clk=1
dsine=1
data_out=22

Inside foo after eval.....
clk=0
dsine=1
data_out=22
=============inderjit_prs8bit_generator : New Iteration===========
Instance : 0

Inside foo before eval.....
clk=0
rst=0
out=1

Inside foo after eval.....
clk=1
rst=0
out=0
=============inderjit_d_sine : New Iteration===========
Instance : 0

Inside foo before eval.....
clk=0
dsine=1
data_out=22

Inside foo after eval.....
clk=1
dsine=1
data_out=24
=============inderjit_d_sine : New Iteration===========
Instance : 0

Inside foo before eval.....
clk=1
dsine=1
data_out=24

Inside foo after eval.....
clk=1
dsine=0
data_out=24
=============inderjit_prs8bit_generator : New Iteration===========
Instance : 0

Inside foo before eval.....
clk=1
rst=0
out=0

Inside foo after eval.....
clk=1
rst=0
out=0
=============inderjit_d_sine : New Iteration===========
Instance : 0

Inside foo before eval.....
clk=1
dsine=0
data_out=24

Inside foo after eval.....
clk=1
dsine=0
data_out=24
=============inderjit_prs8bit_generator : New Iteration===========
Instance : 0

Inside foo before eval.....
clk=1
rst=0
out=0

Inside foo after eval.....
clk=1
rst=0
out=0
=============inderjit_d_sine : New Iteration===========
Instance : 0

Inside foo before eval.....
clk=1
dsine=0
data_out=24

Inside foo after eval.....
clk=1
dsine=0
data_out=24
=============inderjit_prs8bit_generator : New Iteration===========
Instance : 0

Inside foo before eval.....
clk=1
rst=0
out=0

Inside foo after eval.....
clk=0
rst=0
out=0
=============inderjit_d_sine : New Iteration===========
Instance : 0

Inside foo before eval.....
clk=1
dsine=0
data_out=24

Inside foo after eval.....
clk=0
dsine=0
data_out=24
=============inderjit_prs8bit_generator : New Iteration===========
Instance : 0

Inside foo before eval.....
clk=0
rst=0
out=0

Inside foo after eval.....
clk=1
rst=0
out=0
=============inderjit_d_sine : New Iteration===========
Instance : 0

Inside foo before eval.....
clk=0
dsine=0
data_out=24

Inside foo after eval.....
clk=1
dsine=0
data_out=27
=============inderjit_prs8bit_generator : New Iteration===========
Instance : 0

Inside foo before eval.....
clk=1
rst=0
out=0

Inside foo after eval.....
clk=1
rst=0
out=0
=============inderjit_d_sine : New Iteration===========
Instance : 0

Inside foo before eval.....
clk=1
dsine=0
data_out=27

Inside foo after eval.....
clk=1
dsine=0
data_out=27
=============inderjit_prs8bit_generator : New Iteration===========
Instance : 0

Inside foo before eval.....
clk=1
rst=0
out=0

Inside foo after eval.....
clk=1
rst=0
out=0
=============inderjit_d_sine : New Iteration===========
Instance : 0

Inside foo before eval.....
clk=1
dsine=0
data_out=27

Inside foo after eval.....
clk=1
dsine=0
data_out=27
=============inderjit_prs8bit_generator : New Iteration===========
Instance : 0

Inside foo before eval.....
clk=1
rst=0
out=0

Inside foo after eval.....
clk=0
rst=0
out=0
=============inderjit_d_sine : New Iteration===========
Instance : 0

Inside foo before eval.....
clk=1
dsine=0
data_out=27

Inside foo after eval.....
clk=0
dsine=0
data_out=27
=============inderjit_prs8bit_generator : New Iteration===========
Instance : 0

Inside foo before eval.....
clk=0
rst=0
out=0

Inside foo after eval.....
clk=1
rst=0
out=0
=============inderjit_d_sine : New Iteration===========
Instance : 0

Inside foo before eval.....
clk=0
dsine=0
data_out=27

Inside foo after eval.....
clk=1
dsine=0
data_out=29
=============inderjit_prs8bit_generator : New Iteration===========
Instance : 0

Inside foo before eval.....
clk=1
rst=0
out=0

Inside foo after eval.....
clk=1
rst=0
out=0
=============inderjit_d_sine : New Iteration===========
Instance : 0

Inside foo before eval.....
clk=1
dsine=0
data_out=29

Inside foo after eval.....
clk=1
dsine=0
data_out=29
=============inderjit_prs8bit_generator : New Iteration===========
Instance : 0

Inside foo before eval.....
clk=1
rst=0
out=0

Inside foo after eval.....
clk=1
rst=0
out=0
=============inderjit_d_sine : New Iteration===========
Instance : 0

Inside foo before eval.....
clk=1
dsine=0
data_out=29

Inside foo after eval.....
clk=1
dsine=0
data_out=29
=============inderjit_prs8bit_generator : New Iteration===========
Instance : 0

Inside foo before eval.....
clk=1
rst=0
out=0

Inside foo after eval.....
clk=0
rst=0
out=0
=============inderjit_d_sine : New Iteration===========
Instance : 0

Inside foo before eval.....
clk=1
dsine=0
data_out=29

Inside foo after eval.....
clk=0
dsine=0
data_out=29
=============inderjit_prs8bit_generator : New Iteration===========
Instance : 0

Inside foo before eval.....
clk=0
rst=0
out=0

Inside foo after eval.....
clk=1
rst=0
out=0
=============inderjit_d_sine : New Iteration===========
Instance : 0

Inside foo before eval.....
clk=0
dsine=0
data_out=29

Inside foo after eval.....
clk=1
dsine=0
data_out=31
=============inderjit_prs8bit_generator : New Iteration===========
Instance : 0

Inside foo before eval.....
clk=1
rst=0
out=0

Inside foo after eval.....
clk=1
rst=0
out=0
=============inderjit_d_sine : New Iteration===========
Instance : 0

Inside foo before eval.....
clk=1
dsine=0
data_out=31

Inside foo after eval.....
clk=1
dsine=0
data_out=31
=============inderjit_prs8bit_generator : New Iteration===========
Instance : 0

Inside foo before eval.....
clk=1
rst=0
out=0

Inside foo after eval.....
clk=1
rst=0
out=0
=============inderjit_d_sine : New Iteration===========
Instance : 0

Inside foo before eval.....
clk=1
dsine=0
data_out=31

Inside foo after eval.....
clk=1
dsine=0
data_out=31
=============inderjit_prs8bit_generator : New Iteration===========
Instance : 0

Inside foo before eval.....
clk=1
rst=0
out=0

Inside foo after eval.....
clk=0
rst=0
out=0
=============inderjit_d_sine : New Iteration===========
Instance : 0

Inside foo before eval.....
clk=1
dsine=0
data_out=31

Inside foo after eval.....
clk=0
dsine=0
data_out=31
=============inderjit_prs8bit_generator : New Iteration===========
Instance : 0

Inside foo before eval.....
clk=0
rst=0
out=0

Inside foo after eval.....
clk=1
rst=0
out=0
=============inderjit_d_sine : New Iteration===========
Instance : 0

Inside foo before eval.....
clk=0
dsine=0
data_out=31

Inside foo after eval.....
clk=1
dsine=0
data_out=34
=============inderjit_prs8bit_generator : New Iteration===========
Instance : 0

Inside foo before eval.....
clk=1
rst=0
out=0

Inside foo after eval.....
clk=1
rst=0
out=0
=============inderjit_d_sine : New Iteration===========
Instance : 0

Inside foo before eval.....
clk=1
dsine=0
data_out=34

Inside foo after eval.....
clk=1
dsine=0
data_out=34
=============inderjit_prs8bit_generator : New Iteration===========
Instance : 0

Inside foo before eval.....
clk=1
rst=0
out=0

Inside foo after eval.....
clk=1
rst=0
out=0
=============inderjit_d_sine : New Iteration===========
Instance : 0

Inside foo before eval.....
clk=1
dsine=0
data_out=34

Inside foo after eval.....
clk=1
dsine=0
data_out=34
=============inderjit_prs8bit_generator : New Iteration===========
Instance : 0

Inside foo before eval.....
clk=1
rst=0
out=0

Inside foo after eval.....
clk=0
rst=0
out=0
=============inderjit_d_sine : New Iteration===========
Instance : 0

Inside foo before eval.....
clk=1
dsine=0
data_out=34

Inside foo after eval.....
clk=0
dsine=0
data_out=34
=============inderjit_prs8bit_generator : New Iteration===========
Instance : 0

Inside foo before eval.....
clk=0
rst=0
out=0

Inside foo after eval.....
clk=1
rst=0
out=1
=============inderjit_d_sine : New Iteration===========
Instance : 0

Inside foo before eval.....
clk=0
dsine=0
data_out=34

Inside foo after eval.....
clk=1
dsine=0
data_out=36
=============inderjit_d_sine : New Iteration===========
Instance : 0

Inside foo before eval.....
clk=1
dsine=0
data_out=36

Inside foo after eval.....
clk=1
dsine=1
data_out=36
=============inderjit_prs8bit_generator : New Iteration===========
Instance : 0

Inside foo before eval.....
clk=1
rst=0
out=1

Inside foo after eval.....
clk=1
rst=0
out=1
=============inderjit_d_sine : New Iteration===========
Instance : 0

Inside foo before eval.....
clk=1
dsine=1
data_out=36

Inside foo after eval.....
clk=1
dsine=1
data_out=36
=============inderjit_prs8bit_generator : New Iteration===========
Instance : 0

Inside foo before eval.....
clk=1
rst=0
out=1

Inside foo after eval.....
clk=1
rst=0
out=1
=============inderjit_d_sine : New Iteration===========
Instance : 0

Inside foo before eval.....
clk=1
dsine=1
data_out=36

Inside foo after eval.....
clk=1
dsine=1
data_out=36
=============inderjit_prs8bit_generator : New Iteration===========
Instance : 0

Inside foo before eval.....
clk=1
rst=0
out=1

Inside foo after eval.....
clk=0
rst=0
out=1
=============inderjit_d_sine : New Iteration===========
Instance : 0

Inside foo before eval.....
clk=1
dsine=1
data_out=36

Inside foo after eval.....
clk=0
dsine=1
data_out=36
=============inderjit_prs8bit_generator : New Iteration===========
Instance : 0

Inside foo before eval.....
clk=0
rst=0
out=1

Inside foo after eval.....
clk=1
rst=0
out=1
=============inderjit_d_sine : New Iteration===========
Instance : 0

Inside foo before eval.....
clk=0
dsine=1
data_out=36

Inside foo after eval.....
clk=1
dsine=1
data_out=39
=============inderjit_prs8bit_generator : New Iteration===========
Instance : 0

Inside foo before eval.....
clk=1
rst=0
out=1

Inside foo after eval.....
clk=1
rst=0
out=1
=============inderjit_d_sine : New Iteration===========
Instance : 0

Inside foo before eval.....
clk=1
dsine=1
data_out=39

Inside foo after eval.....
clk=1
dsine=1
data_out=39
=============inderjit_prs8bit_generator : New Iteration===========
Instance : 0

Inside foo before eval.....
clk=1
rst=0
out=1

Inside foo after eval.....
clk=1
rst=0
out=1
=============inderjit_d_sine : New Iteration===========
Instance : 0

Inside foo before eval.....
clk=1
dsine=1
data_out=39

Inside foo after eval.....
clk=1
dsine=1
data_out=39
=============inderjit_prs8bit_generator : New Iteration===========
Instance : 0

Inside foo before eval.....
clk=1
rst=0
out=1

Inside foo after eval.....
clk=0
rst=0
out=1
=============inderjit_d_sine : New Iteration===========
Instance : 0

Inside foo before eval.....
clk=1
dsine=1
data_out=39

Inside foo after eval.....
clk=0
dsine=1
data_out=39
=============inderjit_prs8bit_generator : New Iteration===========
Instance : 0

Inside foo before eval.....
clk=0
rst=0
out=1

Inside foo after eval.....
clk=1
rst=0
out=0
=============inderjit_d_sine : New Iteration===========
Instance : 0

Inside foo before eval.....
clk=0
dsine=1
data_out=39

Inside foo after eval.....
clk=1
dsine=1
data_out=40
=============inderjit_d_sine : New Iteration===========
Instance : 0

Inside foo before eval.....
clk=1
dsine=1
data_out=40

Inside foo after eval.....
clk=1
dsine=0
data_out=40
=============inderjit_prs8bit_generator : New Iteration===========
Instance : 0

Inside foo before eval.....
clk=1
rst=0
out=0

Inside foo after eval.....
clk=1
rst=0
out=0
=============inderjit_d_sine : New Iteration===========
Instance : 0

Inside foo before eval.....
clk=1
dsine=0
data_out=40

Inside foo after eval.....
clk=1
dsine=0
data_out=40
=============inderjit_prs8bit_generator : New Iteration===========
Instance : 0

Inside foo before eval.....
clk=1
rst=0
out=0

Inside foo after eval.....
clk=1
rst=0
out=0
=============inderjit_d_sine : New Iteration===========
Instance : 0

Inside foo before eval.....
clk=1
dsine=0
data_out=40

Inside foo after eval.....
clk=1
dsine=0
data_out=40
=============inderjit_prs8bit_generator : New Iteration===========
Instance : 0

Inside foo before eval.....
clk=1
rst=0
out=0

Inside foo after eval.....
clk=0
rst=0
out=0
=============inderjit_d_sine : New Iteration===========
Instance : 0

Inside foo before eval.....
clk=1
dsine=0
data_out=40

Inside foo after eval.....
clk=0
dsine=0
data_out=40
=============inderjit_prs8bit_generator : New Iteration===========
Instance : 0

Inside foo before eval.....
clk=0
rst=0
out=0

Inside foo after eval.....
clk=1
rst=0
out=1
=============inderjit_d_sine : New Iteration===========
Instance : 0

Inside foo before eval.....
clk=0
dsine=0
data_out=40

Inside foo after eval.....
clk=1
dsine=0
data_out=43
=============inderjit_d_sine : New Iteration===========
Instance : 0

Inside foo before eval.....
clk=1
dsine=0
data_out=43

Inside foo after eval.....
clk=1
dsine=1
data_out=43
=============inderjit_prs8bit_generator : New Iteration===========
Instance : 0

Inside foo before eval.....
clk=1
rst=0
out=1

Inside foo after eval.....
clk=1
rst=0
out=1
=============inderjit_d_sine : New Iteration===========
Instance : 0

Inside foo before eval.....
clk=1
dsine=1
data_out=43

Inside foo after eval.....
clk=1
dsine=1
data_out=43
=============inderjit_prs8bit_generator : New Iteration===========
Instance : 0

Inside foo before eval.....
clk=1
rst=0
out=1

Inside foo after eval.....
clk=1
rst=0
out=1
=============inderjit_d_sine : New Iteration===========
Instance : 0

Inside foo before eval.....
clk=1
dsine=1
data_out=43

Inside foo after eval.....
clk=1
dsine=1
data_out=43
=============inderjit_prs8bit_generator : New Iteration===========
Instance : 0

Inside foo before eval.....
clk=1
rst=0
out=1

Inside foo after eval.....
clk=0
rst=0
out=1
=============inderjit_d_sine : New Iteration===========
Instance : 0

Inside foo before eval.....
clk=1
dsine=1
data_out=43

Inside foo after eval.....
clk=0
dsine=1
data_out=43
=============inderjit_prs8bit_generator : New Iteration===========
Instance : 0

Inside foo before eval.....
clk=0
rst=0
out=1

Inside foo after eval.....
clk=1
rst=0
out=0
=============inderjit_d_sine : New Iteration===========
Instance : 0

Inside foo before eval.....
clk=0
dsine=1
data_out=43

Inside foo after eval.....
clk=1
dsine=1
data_out=45
=============inderjit_d_sine : New Iteration===========
Instance : 0

Inside foo before eval.....
clk=1
dsine=1
data_out=45

Inside foo after eval.....
clk=1
dsine=0
data_out=45
=============inderjit_prs8bit_generator : New Iteration===========
Instance : 0

Inside foo before eval.....
clk=1
rst=0
out=0

Inside foo after eval.....
clk=1
rst=0
out=0
=============inderjit_d_sine : New Iteration===========
Instance : 0

Inside foo before eval.....
clk=1
dsine=0
data_out=45

Inside foo after eval.....
clk=1
dsine=0
data_out=45
=============inderjit_prs8bit_generator : New Iteration===========
Instance : 0

Inside foo before eval.....
clk=1
rst=0
out=0

Inside foo after eval.....
clk=1
rst=0
out=0
=============inderjit_d_sine : New Iteration===========
Instance : 0

Inside foo before eval.....
clk=1
dsine=0
data_out=45

Inside foo after eval.....
clk=1
dsine=0
data_out=45
=============inderjit_prs8bit_generator : New Iteration===========
Instance : 0

Inside foo before eval.....
clk=1
rst=0
out=0

Inside foo after eval.....
clk=0
rst=0
out=0
=============inderjit_d_sine : New Iteration===========
Instance : 0

Inside foo before eval.....
clk=1
dsine=0
data_out=45

Inside foo after eval.....
clk=0
dsine=0
data_out=45
=============inderjit_prs8bit_generator : New Iteration===========
Instance : 0

Inside foo before eval.....
clk=0
rst=0
out=0

Inside foo after eval.....
clk=1
rst=0
out=1
=============inderjit_d_sine : New Iteration===========
Instance : 0

Inside foo before eval.....
clk=0
dsine=0
data_out=45

Inside foo after eval.....
clk=1
dsine=0
data_out=47
=============inderjit_d_sine : New Iteration===========
Instance : 0

Inside foo before eval.....
clk=1
dsine=0
data_out=47

Inside foo after eval.....
clk=1
dsine=1
data_out=47
=============inderjit_prs8bit_generator : New Iteration===========
Instance : 0

Inside foo before eval.....
clk=1
rst=0
out=1

Inside foo after eval.....
clk=1
rst=0
out=1
=============inderjit_d_sine : New Iteration===========
Instance : 0

Inside foo before eval.....
clk=1
dsine=1
data_out=47

Inside foo after eval.....
clk=1
dsine=1
data_out=47
=============inderjit_prs8bit_generator : New Iteration===========
Instance : 0

Inside foo before eval.....
clk=1
rst=0
out=1

Inside foo after eval.....
clk=1
rst=0
out=1
=============inderjit_d_sine : New Iteration===========
Instance : 0

Inside foo before eval.....
clk=1
dsine=1
data_out=47

Inside foo after eval.....
clk=1
dsine=1
data_out=47
=============inderjit_prs8bit_generator : New Iteration===========
Instance : 0

Inside foo before eval.....
clk=1
rst=0
out=1

Inside foo after eval.....
clk=0
rst=0
out=1
=============inderjit_d_sine : New Iteration===========
Instance : 0

Inside foo before eval.....
clk=1
dsine=1
data_out=47

Inside foo after eval.....
clk=0
dsine=1
data_out=47
=============inderjit_prs8bit_generator : New Iteration===========
Instance : 0

Inside foo before eval.....
clk=0
rst=0
out=1

Inside foo after eval.....
clk=1
rst=0
out=1
=============inderjit_d_sine : New Iteration===========
Instance : 0

Inside foo before eval.....
clk=0
dsine=1
data_out=47

Inside foo after eval.....
clk=1
dsine=1
data_out=49
=============inderjit_prs8bit_generator : New Iteration===========
Instance : 0

Inside foo before eval.....
clk=1
rst=0
out=1

Inside foo after eval.....
clk=1
rst=0
out=1
=============inderjit_d_sine : New Iteration===========
Instance : 0

Inside foo before eval.....
clk=1
dsine=1
data_out=49

Inside foo after eval.....
clk=1
dsine=1
data_out=49
=============inderjit_prs8bit_generator : New Iteration===========
Instance : 0

Inside foo before eval.....
clk=1
rst=0
out=1

Inside foo after eval.....
clk=1
rst=0
out=1
=============inderjit_d_sine : New Iteration===========
Instance : 0

Inside foo before eval.....
clk=1
dsine=1
data_out=49

Inside foo after eval.....
clk=1
dsine=1
data_out=49
=============inderjit_prs8bit_generator : New Iteration===========
Instance : 0

Inside foo before eval.....
clk=1
rst=0
out=1

Inside foo after eval.....
clk=0
rst=0
out=1
=============inderjit_d_sine : New Iteration===========
Instance : 0

Inside foo before eval.....
clk=1
dsine=1
data_out=49

Inside foo after eval.....
clk=0
dsine=1
data_out=49
=============inderjit_prs8bit_generator : New Iteration===========
Instance : 0

Inside foo before eval.....
clk=0
rst=0
out=1

Inside foo after eval.....
clk=1
rst=0
out=1
=============inderjit_d_sine : New Iteration===========
Instance : 0

Inside foo before eval.....
clk=0
dsine=1
data_out=49

Inside foo after eval.....
clk=1
dsine=1
data_out=51
=============inderjit_prs8bit_generator : New Iteration===========
Instance : 0

Inside foo before eval.....
clk=1
rst=0
out=1

Inside foo after eval.....
clk=1
rst=0
out=1
=============inderjit_d_sine : New Iteration===========
Instance : 0

Inside foo before eval.....
clk=1
dsine=1
data_out=51

Inside foo after eval.....
clk=1
dsine=1
data_out=51
=============inderjit_prs8bit_generator : New Iteration===========
Instance : 0

Inside foo before eval.....
clk=1
rst=0
out=1

Inside foo after eval.....
clk=1
rst=0
out=1
=============inderjit_d_sine : New Iteration===========
Instance : 0

Inside foo before eval.....
clk=1
dsine=1
data_out=51

Inside foo after eval.....
clk=1
dsine=1
data_out=51
=============inderjit_prs8bit_generator : New Iteration===========
Instance : 0

Inside foo before eval.....
clk=1
rst=0
out=1

Inside foo after eval.....
clk=0
rst=0
out=1
=============inderjit_d_sine : New Iteration===========
Instance : 0

Inside foo before eval.....
clk=1
dsine=1
data_out=51

Inside foo after eval.....
clk=0
dsine=1
data_out=51
=============inderjit_prs8bit_generator : New Iteration===========
Instance : 0

Inside foo before eval.....
clk=0
rst=0
out=1

Inside foo after eval.....
clk=1
rst=0
out=1
=============inderjit_d_sine : New Iteration===========
Instance : 0

Inside foo before eval.....
clk=0
dsine=1
data_out=51

Inside foo after eval.....
clk=1
dsine=1
data_out=53
=============inderjit_prs8bit_generator : New Iteration===========
Instance : 0

Inside foo before eval.....
clk=1
rst=0
out=1

Inside foo after eval.....
clk=1
rst=0
out=1
=============inderjit_d_sine : New Iteration===========
Instance : 0

Inside foo before eval.....
clk=1
dsine=1
data_out=53

Inside foo after eval.....
clk=1
dsine=1
data_out=53
=============inderjit_prs8bit_generator : New Iteration===========
Instance : 0

Inside foo before eval.....
clk=1
rst=0
out=1

Inside foo after eval.....
clk=1
rst=0
out=1
=============inderjit_d_sine : New Iteration===========
Instance : 0

Inside foo before eval.....
clk=1
dsine=1
data_out=53

Inside foo after eval.....
clk=1
dsine=1
data_out=53
=============inderjit_prs8bit_generator : New Iteration===========
Instance : 0

Inside foo before eval.....
clk=1
rst=0
out=1

Inside foo after eval.....
clk=0
rst=0
out=1
=============inderjit_d_sine : New Iteration===========
Instance : 0

Inside foo before eval.....
clk=1
dsine=1
data_out=53

Inside foo after eval.....
clk=0
dsine=1
data_out=53
=============inderjit_prs8bit_generator : New Iteration===========
Instance : 0

Inside foo before eval.....
clk=0
rst=0
out=1

Inside foo after eval.....
clk=1
rst=0
out=0
=============inderjit_d_sine : New Iteration===========
Instance : 0

Inside foo before eval.....
clk=0
dsine=1
data_out=53

Inside foo after eval.....
clk=1
dsine=1
data_out=55
=============inderjit_d_sine : New Iteration===========
Instance : 0

Inside foo before eval.....
clk=1
dsine=1
data_out=55

Inside foo after eval.....
clk=1
dsine=0
data_out=55
=============inderjit_prs8bit_generator : New Iteration===========
Instance : 0

Inside foo before eval.....
clk=1
rst=0
out=0

Inside foo after eval.....
clk=1
rst=0
out=0
=============inderjit_d_sine : New Iteration===========
Instance : 0

Inside foo before eval.....
clk=1
dsine=0
data_out=55

Inside foo after eval.....
clk=1
dsine=0
data_out=55
=============inderjit_prs8bit_generator : New Iteration===========
Instance : 0

Inside foo before eval.....
clk=1
rst=0
out=0

Inside foo after eval.....
clk=1
rst=0
out=0
=============inderjit_d_sine : New Iteration===========
Instance : 0

Inside foo before eval.....
clk=1
dsine=0
data_out=55

Inside foo after eval.....
clk=1
dsine=0
data_out=55
=============inderjit_prs8bit_generator : New Iteration===========
Instance : 0

Inside foo before eval.....
clk=1
rst=0
out=0

Inside foo after eval.....
clk=0
rst=0
out=0
=============inderjit_d_sine : New Iteration===========
Instance : 0

Inside foo before eval.....
clk=1
dsine=0
data_out=55

Inside foo after eval.....
clk=0
dsine=0
data_out=55
=============inderjit_prs8bit_generator : New Iteration===========
Instance : 0

Inside foo before eval.....
clk=0
rst=0
out=0

Inside foo after eval.....
clk=1
rst=0
out=1
=============inderjit_d_sine : New Iteration===========
Instance : 0

Inside foo before eval.....
clk=0
dsine=0
data_out=55

Inside foo after eval.....
clk=1
dsine=0
data_out=57
=============inderjit_d_sine : New Iteration===========
Instance : 0

Inside foo before eval.....
clk=1
dsine=0
data_out=57

Inside foo after eval.....
clk=1
dsine=1
data_out=57
=============inderjit_prs8bit_generator : New Iteration===========
Instance : 0

Inside foo before eval.....
clk=1
rst=0
out=1

Inside foo after eval.....
clk=1
rst=0
out=1
=============inderjit_d_sine : New Iteration===========
Instance : 0

Inside foo before eval.....
clk=1
dsine=1
data_out=57

Inside foo after eval.....
clk=1
dsine=1
data_out=57
=============inderjit_prs8bit_generator : New Iteration===========
Instance : 0

Inside foo before eval.....
clk=1
rst=0
out=1

Inside foo after eval.....
clk=1
rst=0
out=1
=============inderjit_d_sine : New Iteration===========
Instance : 0

Inside foo before eval.....
clk=1
dsine=1
data_out=57

Inside foo after eval.....
clk=1
dsine=1
data_out=57
=============inderjit_prs8bit_generator : New Iteration===========
Instance : 0

Inside foo before eval.....
clk=1
rst=0
out=1

Inside foo after eval.....
clk=0
rst=0
out=1
=============inderjit_d_sine : New Iteration===========
Instance : 0

Inside foo before eval.....
clk=1
dsine=1
data_out=57

Inside foo after eval.....
clk=0
dsine=1
data_out=57
=============inderjit_prs8bit_generator : New Iteration===========
Instance : 0

Inside foo before eval.....
clk=0
rst=0
out=1

Inside foo after eval.....
clk=1
rst=0
out=1
=============inderjit_d_sine : New Iteration===========
Instance : 0

Inside foo before eval.....
clk=0
dsine=1
data_out=57

Inside foo after eval.....
clk=1
dsine=1
data_out=59
=============inderjit_prs8bit_generator : New Iteration===========
Instance : 0

Inside foo before eval.....
clk=1
rst=0
out=1

Inside foo after eval.....
clk=1
rst=0
out=1
=============inderjit_d_sine : New Iteration===========
Instance : 0

Inside foo before eval.....
clk=1
dsine=1
data_out=59

Inside foo after eval.....
clk=1
dsine=1
data_out=59
=============inderjit_prs8bit_generator : New Iteration===========
Instance : 0

Inside foo before eval.....
clk=1
rst=0
out=1

Inside foo after eval.....
clk=1
rst=0
out=1
=============inderjit_d_sine : New Iteration===========
Instance : 0

Inside foo before eval.....
clk=1
dsine=1
data_out=59

Inside foo after eval.....
clk=1
dsine=1
data_out=59
=============inderjit_prs8bit_generator : New Iteration===========
Instance : 0

Inside foo before eval.....
clk=1
rst=0
out=1

Inside foo after eval.....
clk=0
rst=0
out=1
=============inderjit_d_sine : New Iteration===========
Instance : 0

Inside foo before eval.....
clk=1
dsine=1
data_out=59

Inside foo after eval.....
clk=0
dsine=1
data_out=59
=============inderjit_prs8bit_generator : New Iteration===========
Instance : 0

Inside foo before eval.....
clk=0
rst=0
out=1

Inside foo after eval.....
clk=1
rst=0
out=0
=============inderjit_d_sine : New Iteration===========
Instance : 0

Inside foo before eval.....
clk=0
dsine=1
data_out=59

Inside foo after eval.....
clk=1
dsine=1
data_out=61
=============inderjit_d_sine : New Iteration===========
Instance : 0

Inside foo before eval.....
clk=1
dsine=1
data_out=61

Inside foo after eval.....
clk=1
dsine=0
data_out=61
=============inderjit_prs8bit_generator : New Iteration===========
Instance : 0

Inside foo before eval.....
clk=1
rst=0
out=0

Inside foo after eval.....
clk=1
rst=0
out=0
=============inderjit_d_sine : New Iteration===========
Instance : 0

Inside foo before eval.....
clk=1
dsine=0
data_out=61

Inside foo after eval.....
clk=1
dsine=0
data_out=61
=============inderjit_prs8bit_generator : New Iteration===========
Instance : 0

Inside foo before eval.....
clk=1
rst=0
out=0

Inside foo after eval.....
clk=1
rst=0
out=0
=============inderjit_d_sine : New Iteration===========
Instance : 0

Inside foo before eval.....
clk=1
dsine=0
data_out=61

Inside foo after eval.....
clk=1
dsine=0
data_out=61
=============inderjit_prs8bit_generator : New Iteration===========
Instance : 0

Inside foo before eval.....
clk=1
rst=0
out=0

Inside foo after eval.....
clk=0
rst=0
out=0
=============inderjit_d_sine : New Iteration===========
Instance : 0

Inside foo before eval.....
clk=1
dsine=0
data_out=61

Inside foo after eval.....
clk=0
dsine=0
data_out=61
=============inderjit_prs8bit_generator : New Iteration===========
Instance : 0

Inside foo before eval.....
clk=0
rst=0
out=0

Inside foo after eval.....
clk=1
rst=0
out=0
=============inderjit_d_sine : New Iteration===========
Instance : 0

Inside foo before eval.....
clk=0
dsine=0
data_out=61

Inside foo after eval.....
clk=1
dsine=0
data_out=63
=============inderjit_prs8bit_generator : New Iteration===========
Instance : 0

Inside foo before eval.....
clk=1
rst=0
out=0

Inside foo after eval.....
clk=1
rst=0
out=0
=============inderjit_d_sine : New Iteration===========
Instance : 0

Inside foo before eval.....
clk=1
dsine=0
data_out=63

Inside foo after eval.....
clk=1
dsine=0
data_out=63
=============inderjit_prs8bit_generator : New Iteration===========
Instance : 0

Inside foo before eval.....
clk=1
rst=0
out=0

Inside foo after eval.....
clk=1
rst=0
out=0
=============inderjit_d_sine : New Iteration===========
Instance : 0

Inside foo before eval.....
clk=1
dsine=0
data_out=63

Inside foo after eval.....
clk=1
dsine=0
data_out=63
=============inderjit_prs8bit_generator : New Iteration===========
Instance : 0

Inside foo before eval.....
clk=1
rst=0
out=0

Inside foo after eval.....
clk=0
rst=0
out=0
=============inderjit_d_sine : New Iteration===========
Instance : 0

Inside foo before eval.....
clk=1
dsine=0
data_out=63

Inside foo after eval.....
clk=0
dsine=0
data_out=63
=============inderjit_prs8bit_generator : New Iteration===========
Instance : 0

Inside foo before eval.....
clk=0
rst=0
out=0

Inside foo after eval.....
clk=1
rst=0
out=0
=============inderjit_d_sine : New Iteration===========
Instance : 0

Inside foo before eval.....
clk=0
dsine=0
data_out=63

Inside foo after eval.....
clk=1
dsine=0
data_out=65
=============inderjit_prs8bit_generator : New Iteration===========
Instance : 0

Inside foo before eval.....
clk=1
rst=0
out=0

Inside foo after eval.....
clk=1
rst=0
out=0
=============inderjit_d_sine : New Iteration===========
Instance : 0

Inside foo before eval.....
clk=1
dsine=0
data_out=65

Inside foo after eval.....
clk=1
dsine=0
data_out=65
=============inderjit_prs8bit_generator : New Iteration===========
Instance : 0

Inside foo before eval.....
clk=1
rst=0
out=0

Inside foo after eval.....
clk=1
rst=0
out=0
=============inderjit_d_sine : New Iteration===========
Instance : 0

Inside foo before eval.....
clk=1
dsine=0
data_out=65

Inside foo after eval.....
clk=1
dsine=0
data_out=65
=============inderjit_prs8bit_generator : New Iteration===========
Instance : 0

Inside foo before eval.....
clk=1
rst=0
out=0

Inside foo after eval.....
clk=0
rst=0
out=0
=============inderjit_d_sine : New Iteration===========
Instance : 0

Inside foo before eval.....
clk=1
dsine=0
data_out=65

Inside foo after eval.....
clk=0
dsine=0
data_out=65
=============inderjit_prs8bit_generator : New Iteration===========
Instance : 0

Inside foo before eval.....
clk=0
rst=0
out=0

Inside foo after eval.....
clk=1
rst=0
out=0
=============inderjit_d_sine : New Iteration===========
Instance : 0

Inside foo before eval.....
clk=0
dsine=0
data_out=65

Inside foo after eval.....
clk=1
dsine=0
data_out=67
=============inderjit_prs8bit_generator : New Iteration===========
Instance : 0

Inside foo before eval.....
clk=1
rst=0
out=0

Inside foo after eval.....
clk=1
rst=0
out=0
=============inderjit_d_sine : New Iteration===========
Instance : 0

Inside foo before eval.....
clk=1
dsine=0
data_out=67

Inside foo after eval.....
clk=1
dsine=0
data_out=67
=============inderjit_prs8bit_generator : New Iteration===========
Instance : 0

Inside foo before eval.....
clk=1
rst=0
out=0

Inside foo after eval.....
clk=1
rst=0
out=0
=============inderjit_d_sine : New Iteration===========
Instance : 0

Inside foo before eval.....
clk=1
dsine=0
data_out=67

Inside foo after eval.....
clk=1
dsine=0
data_out=67
=============inderjit_prs8bit_generator : New Iteration===========
Instance : 0

Inside foo before eval.....
clk=1
rst=0
out=0

Inside foo after eval.....
clk=0
rst=0
out=0
=============inderjit_d_sine : New Iteration===========
Instance : 0

Inside foo before eval.....
clk=1
dsine=0
data_out=67

Inside foo after eval.....
clk=0
dsine=0
data_out=67
=============inderjit_prs8bit_generator : New Iteration===========
Instance : 0

Inside foo before eval.....
clk=0
rst=0
out=0

Inside foo after eval.....
clk=1
rst=0
out=0
=============inderjit_d_sine : New Iteration===========
Instance : 0

Inside foo before eval.....
clk=0
dsine=0
data_out=67

Inside foo after eval.....
clk=1
dsine=0
data_out=69
=============inderjit_prs8bit_generator : New Iteration===========
Instance : 0

Inside foo before eval.....
clk=1
rst=0
out=0

Inside foo after eval.....
clk=1
rst=0
out=0
=============inderjit_d_sine : New Iteration===========
Instance : 0

Inside foo before eval.....
clk=1
dsine=0
data_out=69

Inside foo after eval.....
clk=1
dsine=0
data_out=69
=============inderjit_prs8bit_generator : New Iteration===========
Instance : 0

Inside foo before eval.....
clk=1
rst=0
out=0

Inside foo after eval.....
clk=1
rst=0
out=0
=============inderjit_d_sine : New Iteration===========
Instance : 0

Inside foo before eval.....
clk=1
dsine=0
data_out=69

Inside foo after eval.....
clk=1
dsine=0
data_out=69
=============inderjit_prs8bit_generator : New Iteration===========
Instance : 0

Inside foo before eval.....
clk=1
rst=0
out=0

Inside foo after eval.....
clk=0
rst=0
out=0
=============inderjit_d_sine : New Iteration===========
Instance : 0

Inside foo before eval.....
clk=1
dsine=0
data_out=69

Inside foo after eval.....
clk=0
dsine=0
data_out=69
=============inderjit_prs8bit_generator : New Iteration===========
Instance : 0

Inside foo before eval.....
clk=0
rst=0
out=0

Inside foo after eval.....
clk=1
rst=0
out=0
=============inderjit_d_sine : New Iteration===========
Instance : 0

Inside foo before eval.....
clk=0
dsine=0
data_out=69

Inside foo after eval.....
clk=1
dsine=0
data_out=70
=============inderjit_prs8bit_generator : New Iteration===========
Instance : 0

Inside foo before eval.....
clk=1
rst=0
out=0

Inside foo after eval.....
clk=1
rst=0
out=0
=============inderjit_d_sine : New Iteration===========
Instance : 0

Inside foo before eval.....
clk=1
dsine=0
data_out=70

Inside foo after eval.....
clk=1
dsine=0
data_out=70
=============inderjit_prs8bit_generator : New Iteration===========
Instance : 0

Inside foo before eval.....
clk=1
rst=0
out=0

Inside foo after eval.....
clk=1
rst=0
out=0
=============inderjit_d_sine : New Iteration===========
Instance : 0

Inside foo before eval.....
clk=1
dsine=0
data_out=70

Inside foo after eval.....
clk=1
dsine=0
data_out=70
=============inderjit_prs8bit_generator : New Iteration===========
Instance : 0

Inside foo before eval.....
clk=1
rst=0
out=0

Inside foo after eval.....
clk=0
rst=0
out=0
=============inderjit_d_sine : New Iteration===========
Instance : 0

Inside foo before eval.....
clk=1
dsine=0
data_out=70

Inside foo after eval.....
clk=0
dsine=0
data_out=70
=============inderjit_prs8bit_generator : New Iteration===========
Instance : 0

Inside foo before eval.....
clk=0
rst=0
out=0

Inside foo after eval.....
clk=1
rst=0
out=0
=============inderjit_d_sine : New Iteration===========
Instance : 0

Inside foo before eval.....
clk=0
dsine=0
data_out=70

Inside foo after eval.....
clk=1
dsine=0
data_out=72
=============inderjit_prs8bit_generator : New Iteration===========
Instance : 0

Inside foo before eval.....
clk=1
rst=0
out=0

Inside foo after eval.....
clk=1
rst=0
out=0
=============inderjit_d_sine : New Iteration===========
Instance : 0

Inside foo before eval.....
clk=1
dsine=0
data_out=72

Inside foo after eval.....
clk=1
dsine=0
data_out=72
=============inderjit_prs8bit_generator : New Iteration===========
Instance : 0

Inside foo before eval.....
clk=1
rst=0
out=0

Inside foo after eval.....
clk=1
rst=0
out=0
=============inderjit_d_sine : New Iteration===========
Instance : 0

Inside foo before eval.....
clk=1
dsine=0
data_out=72

Inside foo after eval.....
clk=1
dsine=0
data_out=72
=============inderjit_prs8bit_generator : New Iteration===========
Instance : 0

Inside foo before eval.....
clk=1
rst=0
out=0

Inside foo after eval.....
clk=0
rst=0
out=0
=============inderjit_d_sine : New Iteration===========
Instance : 0

Inside foo before eval.....
clk=1
dsine=0
data_out=72

Inside foo after eval.....
clk=0
dsine=0
data_out=72
=============inderjit_prs8bit_generator : New Iteration===========
Instance : 0

Inside foo before eval.....
clk=0
rst=0
out=0

Inside foo after eval.....
clk=1
rst=0
out=0
=============inderjit_d_sine : New Iteration===========
Instance : 0

Inside foo before eval.....
clk=0
dsine=0
data_out=72

Inside foo after eval.....
clk=1
dsine=0
data_out=74
=============inderjit_prs8bit_generator : New Iteration===========
Instance : 0

Inside foo before eval.....
clk=1
rst=0
out=0

Inside foo after eval.....
clk=1
rst=0
out=0
=============inderjit_d_sine : New Iteration===========
Instance : 0

Inside foo before eval.....
clk=1
dsine=0
data_out=74

Inside foo after eval.....
clk=1
dsine=0
data_out=74
=============inderjit_prs8bit_generator : New Iteration===========
Instance : 0

Inside foo before eval.....
clk=1
rst=0
out=0

Inside foo after eval.....
clk=1
rst=0
out=0
=============inderjit_d_sine : New Iteration===========
Instance : 0

Inside foo before eval.....
clk=1
dsine=0
data_out=74

Inside foo after eval.....
clk=1
dsine=0
data_out=74
=============inderjit_prs8bit_generator : New Iteration===========
Instance : 0

Inside foo before eval.....
clk=1
rst=0
out=0

Inside foo after eval.....
clk=0
rst=0
out=0
=============inderjit_d_sine : New Iteration===========
Instance : 0

Inside foo before eval.....
clk=1
dsine=0
data_out=74

Inside foo after eval.....
clk=0
dsine=0
data_out=74
=============inderjit_prs8bit_generator : New Iteration===========
Instance : 0

Inside foo before eval.....
clk=0
rst=0
out=0

Inside foo after eval.....
clk=1
rst=0
out=1
=============inderjit_d_sine : New Iteration===========
Instance : 0

Inside foo before eval.....
clk=0
dsine=0
data_out=74

Inside foo after eval.....
clk=1
dsine=0
data_out=75
=============inderjit_d_sine : New Iteration===========
Instance : 0

Inside foo before eval.....
clk=1
dsine=0
data_out=75

Inside foo after eval.....
clk=1
dsine=1
data_out=75
=============inderjit_prs8bit_generator : New Iteration===========
Instance : 0

Inside foo before eval.....
clk=1
rst=0
out=1

Inside foo after eval.....
clk=1
rst=0
out=1
=============inderjit_d_sine : New Iteration===========
Instance : 0

Inside foo before eval.....
clk=1
dsine=1
data_out=75

Inside foo after eval.....
clk=1
dsine=1
data_out=75
=============inderjit_prs8bit_generator : New Iteration===========
Instance : 0

Inside foo before eval.....
clk=1
rst=0
out=1

Inside foo after eval.....
clk=1
rst=0
out=1
=============inderjit_d_sine : New Iteration===========
Instance : 0

Inside foo before eval.....
clk=1
dsine=1
data_out=75

Inside foo after eval.....
clk=1
dsine=1
data_out=75
=============inderjit_prs8bit_generator : New Iteration===========
Instance : 0

Inside foo before eval.....
clk=1
rst=0
out=1

Inside foo after eval.....
clk=0
rst=0
out=1
=============inderjit_d_sine : New Iteration===========
Instance : 0

Inside foo before eval.....
clk=1
dsine=1
data_out=75

Inside foo after eval.....
clk=0
dsine=1
data_out=75
=============inderjit_prs8bit_generator : New Iteration===========
Instance : 0

Inside foo before eval.....
clk=0
rst=0
out=1

Inside foo after eval.....
clk=1
rst=0
out=1
=============inderjit_d_sine : New Iteration===========
Instance : 0

Inside foo before eval.....
clk=0
dsine=1
data_out=75

Inside foo after eval.....
clk=1
dsine=1
data_out=77
=============inderjit_prs8bit_generator : New Iteration===========
Instance : 0

Inside foo before eval.....
clk=1
rst=0
out=1

Inside foo after eval.....
clk=1
rst=0
out=1
=============inderjit_d_sine : New Iteration===========
Instance : 0

Inside foo before eval.....
clk=1
dsine=1
data_out=77

Inside foo after eval.....
clk=1
dsine=1
data_out=77
=============inderjit_prs8bit_generator : New Iteration===========
Instance : 0

Inside foo before eval.....
clk=1
rst=0
out=1

Inside foo after eval.....
clk=1
rst=0
out=1
=============inderjit_d_sine : New Iteration===========
Instance : 0

Inside foo before eval.....
clk=1
dsine=1
data_out=77

Inside foo after eval.....
clk=1
dsine=1
data_out=77
=============inderjit_prs8bit_generator : New Iteration===========
Instance : 0

Inside foo before eval.....
clk=1
rst=0
out=1

Inside foo after eval.....
clk=0
rst=0
out=1
=============inderjit_d_sine : New Iteration===========
Instance : 0

Inside foo before eval.....
clk=1
dsine=1
data_out=77

Inside foo after eval.....
clk=0
dsine=1
data_out=77
=============inderjit_prs8bit_generator : New Iteration===========
Instance : 0

Inside foo before eval.....
clk=0
rst=0
out=1

Inside foo after eval.....
clk=1
rst=0
out=1
=============inderjit_d_sine : New Iteration===========
Instance : 0

Inside foo before eval.....
clk=0
dsine=1
data_out=77

Inside foo after eval.....
clk=1
dsine=1
data_out=79
=============inderjit_prs8bit_generator : New Iteration===========
Instance : 0

Inside foo before eval.....
clk=1
rst=0
out=1

Inside foo after eval.....
clk=1
rst=0
out=1
=============inderjit_d_sine : New Iteration===========
Instance : 0

Inside foo before eval.....
clk=1
dsine=1
data_out=79

Inside foo after eval.....
clk=1
dsine=1
data_out=79
=============inderjit_prs8bit_generator : New Iteration===========
Instance : 0

Inside foo before eval.....
clk=1
rst=0
out=1

Inside foo after eval.....
clk=1
rst=0
out=1
=============inderjit_d_sine : New Iteration===========
Instance : 0

Inside foo before eval.....
clk=1
dsine=1
data_out=79

Inside foo after eval.....
clk=1
dsine=1
data_out=79
=============inderjit_prs8bit_generator : New Iteration===========
Instance : 0

Inside foo before eval.....
clk=1
rst=0
out=1

Inside foo after eval.....
clk=0
rst=0
out=1
=============inderjit_d_sine : New Iteration===========
Instance : 0

Inside foo before eval.....
clk=1
dsine=1
data_out=79

Inside foo after eval.....
clk=0
dsine=1
data_out=79
=============inderjit_prs8bit_generator : New Iteration===========
Instance : 0

Inside foo before eval.....
clk=0
rst=0
out=1

Inside foo after eval.....
clk=1
rst=0
out=1
=============inderjit_d_sine : New Iteration===========
Instance : 0

Inside foo before eval.....
clk=0
dsine=1
data_out=79

Inside foo after eval.....
clk=1
dsine=1
data_out=80
=============inderjit_prs8bit_generator : New Iteration===========
Instance : 0

Inside foo before eval.....
clk=1
rst=0
out=1

Inside foo after eval.....
clk=1
rst=0
out=1
=============inderjit_d_sine : New Iteration===========
Instance : 0

Inside foo before eval.....
clk=1
dsine=1
data_out=80

Inside foo after eval.....
clk=1
dsine=1
data_out=80
=============inderjit_prs8bit_generator : New Iteration===========
Instance : 0

Inside foo before eval.....
clk=1
rst=0
out=1

Inside foo after eval.....
clk=1
rst=0
out=1
=============inderjit_d_sine : New Iteration===========
Instance : 0

Inside foo before eval.....
clk=1
dsine=1
data_out=80

Inside foo after eval.....
clk=1
dsine=1
data_out=80
=============inderjit_prs8bit_generator : New Iteration===========
Instance : 0

Inside foo before eval.....
clk=1
rst=0
out=1

Inside foo after eval.....
clk=0
rst=0
out=1
=============inderjit_d_sine : New Iteration===========
Instance : 0

Inside foo before eval.....
clk=1
dsine=1
data_out=80

Inside foo after eval.....
clk=0
dsine=1
data_out=80
=============inderjit_prs8bit_generator : New Iteration===========
Instance : 0

Inside foo before eval.....
clk=0
rst=0
out=1

Inside foo after eval.....
clk=1
rst=0
out=0
=============inderjit_d_sine : New Iteration===========
Instance : 0

Inside foo before eval.....
clk=0
dsine=1
data_out=80

Inside foo after eval.....
clk=1
dsine=1
data_out=82
=============inderjit_d_sine : New Iteration===========
Instance : 0

Inside foo before eval.....
clk=1
dsine=1
data_out=82

Inside foo after eval.....
clk=1
dsine=0
data_out=82
=============inderjit_prs8bit_generator : New Iteration===========
Instance : 0

Inside foo before eval.....
clk=1
rst=0
out=0

Inside foo after eval.....
clk=1
rst=0
out=0
=============inderjit_d_sine : New Iteration===========
Instance : 0

Inside foo before eval.....
clk=1
dsine=0
data_out=82

Inside foo after eval.....
clk=1
dsine=0
data_out=82
=============inderjit_prs8bit_generator : New Iteration===========
Instance : 0

Inside foo before eval.....
clk=1
rst=0
out=0

Inside foo after eval.....
clk=1
rst=0
out=0
=============inderjit_d_sine : New Iteration===========
Instance : 0

Inside foo before eval.....
clk=1
dsine=0
data_out=82

Inside foo after eval.....
clk=1
dsine=0
data_out=82
=============inderjit_prs8bit_generator : New Iteration===========
Instance : 0

Inside foo before eval.....
clk=1
rst=0
out=0

Inside foo after eval.....
clk=0
rst=0
out=0
=============inderjit_d_sine : New Iteration===========
Instance : 0

Inside foo before eval.....
clk=1
dsine=0
data_out=82

Inside foo after eval.....
clk=0
dsine=0
data_out=82
=============inderjit_prs8bit_generator : New Iteration===========
Instance : 0

Inside foo before eval.....
clk=0
rst=0
out=0

Inside foo after eval.....
clk=1
rst=0
out=1
=============inderjit_d_sine : New Iteration===========
Instance : 0

Inside foo before eval.....
clk=0
dsine=0
data_out=82

Inside foo after eval.....
clk=1
dsine=0
data_out=83
=============inderjit_d_sine : New Iteration===========
Instance : 0

Inside foo before eval.....
clk=1
dsine=0
data_out=83

Inside foo after eval.....
clk=1
dsine=1
data_out=83
=============inderjit_prs8bit_generator : New Iteration===========
Instance : 0

Inside foo before eval.....
clk=1
rst=0
out=1

Inside foo after eval.....
clk=1
rst=0
out=1
=============inderjit_d_sine : New Iteration===========
Instance : 0

Inside foo before eval.....
clk=1
dsine=1
data_out=83

Inside foo after eval.....
clk=1
dsine=1
data_out=83
=============inderjit_prs8bit_generator : New Iteration===========
Instance : 0

Inside foo before eval.....
clk=1
rst=0
out=1

Inside foo after eval.....
clk=1
rst=0
out=1
=============inderjit_d_sine : New Iteration===========
Instance : 0

Inside foo before eval.....
clk=1
dsine=1
data_out=83

Inside foo after eval.....
clk=1
dsine=1
data_out=83
=============inderjit_prs8bit_generator : New Iteration===========
Instance : 0

Inside foo before eval.....
clk=1
rst=0
out=1

Inside foo after eval.....
clk=0
rst=0
out=1
=============inderjit_d_sine : New Iteration===========
Instance : 0

Inside foo before eval.....
clk=1
dsine=1
data_out=83

Inside foo after eval.....
clk=0
dsine=1
data_out=83
=============inderjit_prs8bit_generator : New Iteration===========
Instance : 0

Inside foo before eval.....
clk=0
rst=0
out=1

Inside foo after eval.....
clk=1
rst=0
out=0
=============inderjit_d_sine : New Iteration===========
Instance : 0

Inside foo before eval.....
clk=0
dsine=1
data_out=83

Inside foo after eval.....
clk=1
dsine=1
data_out=84
=============inderjit_d_sine : New Iteration===========
Instance : 0

Inside foo before eval.....
clk=1
dsine=1
data_out=84

Inside foo after eval.....
clk=1
dsine=0
data_out=84
=============inderjit_prs8bit_generator : New Iteration===========
Instance : 0

Inside foo before eval.....
clk=1
rst=0
out=0

Inside foo after eval.....
clk=1
rst=0
out=0
=============inderjit_d_sine : New Iteration===========
Instance : 0

Inside foo before eval.....
clk=1
dsine=0
data_out=84

Inside foo after eval.....
clk=1
dsine=0
data_out=84
=============inderjit_prs8bit_generator : New Iteration===========
Instance : 0

Inside foo before eval.....
clk=1
rst=0
out=0

Inside foo after eval.....
clk=1
rst=0
out=0
=============inderjit_d_sine : New Iteration===========
Instance : 0

Inside foo before eval.....
clk=1
dsine=0
data_out=84

Inside foo after eval.....
clk=1
dsine=0
data_out=84
=============inderjit_prs8bit_generator : New Iteration===========
Instance : 0

Inside foo before eval.....
clk=1
rst=0
out=0

Inside foo after eval.....
clk=0
rst=0
out=0
=============inderjit_d_sine : New Iteration===========
Instance : 0

Inside foo before eval.....
clk=1
dsine=0
data_out=84

Inside foo after eval.....
clk=0
dsine=0
data_out=84
=============inderjit_prs8bit_generator : New Iteration===========
Instance : 0

Inside foo before eval.....
clk=0
rst=0
out=0

Inside foo after eval.....
clk=1
rst=0
out=0
=============inderjit_d_sine : New Iteration===========
Instance : 0

Inside foo before eval.....
clk=0
dsine=0
data_out=84

Inside foo after eval.....
clk=1
dsine=0
data_out=86
=============inderjit_prs8bit_generator : New Iteration===========
Instance : 0

Inside foo before eval.....
clk=1
rst=0
out=0

Inside foo after eval.....
clk=1
rst=0
out=0
=============inderjit_d_sine : New Iteration===========
Instance : 0

Inside foo before eval.....
clk=1
dsine=0
data_out=86

Inside foo after eval.....
clk=1
dsine=0
data_out=86
=============inderjit_prs8bit_generator : New Iteration===========
Instance : 0

Inside foo before eval.....
clk=1
rst=0
out=0

Inside foo after eval.....
clk=1
rst=0
out=0
=============inderjit_d_sine : New Iteration===========
Instance : 0

Inside foo before eval.....
clk=1
dsine=0
data_out=86

Inside foo after eval.....
clk=1
dsine=0
data_out=86
=============inderjit_prs8bit_generator : New Iteration===========
Instance : 0

Inside foo before eval.....
clk=1
rst=0
out=0

Inside foo after eval.....
clk=0
rst=0
out=0
=============inderjit_d_sine : New Iteration===========
Instance : 0

Inside foo before eval.....
clk=1
dsine=0
data_out=86

Inside foo after eval.....
clk=0
dsine=0
data_out=86
=============inderjit_prs8bit_generator : New Iteration===========
Instance : 0

Inside foo before eval.....
clk=0
rst=0
out=0

Inside foo after eval.....
clk=1
rst=0
out=0
=============inderjit_d_sine : New Iteration===========
Instance : 0

Inside foo before eval.....
clk=0
dsine=0
data_out=86

Inside foo after eval.....
clk=1
dsine=0
data_out=87
=============inderjit_prs8bit_generator : New Iteration===========
Instance : 0

Inside foo before eval.....
clk=1
rst=0
out=0

Inside foo after eval.....
clk=1
rst=0
out=0
=============inderjit_d_sine : New Iteration===========
Instance : 0

Inside foo before eval.....
clk=1
dsine=0
data_out=87

Inside foo after eval.....
clk=1
dsine=0
data_out=87
=============inderjit_prs8bit_generator : New Iteration===========
Instance : 0

Inside foo before eval.....
clk=1
rst=0
out=0

Inside foo after eval.....
clk=1
rst=0
out=0
=============inderjit_d_sine : New Iteration===========
Instance : 0

Inside foo before eval.....
clk=1
dsine=0
data_out=87

Inside foo after eval.....
clk=1
dsine=0
data_out=87
=============inderjit_prs8bit_generator : New Iteration===========
Instance : 0

Inside foo before eval.....
clk=1
rst=0
out=0

Inside foo after eval.....
clk=0
rst=0
out=0
=============inderjit_d_sine : New Iteration===========
Instance : 0

Inside foo before eval.....
clk=1
dsine=0
data_out=87

Inside foo after eval.....
clk=0
dsine=0
data_out=87
=============inderjit_prs8bit_generator : New Iteration===========
Instance : 0

Inside foo before eval.....
clk=0
rst=0
out=0

Inside foo after eval.....
clk=1
rst=0
out=0
=============inderjit_d_sine : New Iteration===========
Instance : 0

Inside foo before eval.....
clk=0
dsine=0
data_out=87

Inside foo after eval.....
clk=1
dsine=0
data_out=88
=============inderjit_prs8bit_generator : New Iteration===========
Instance : 0

Inside foo before eval.....
clk=1
rst=0
out=0

Inside foo after eval.....
clk=1
rst=0
out=0
=============inderjit_d_sine : New Iteration===========
Instance : 0

Inside foo before eval.....
clk=1
dsine=0
data_out=88

Inside foo after eval.....
clk=1
dsine=0
data_out=88
=============inderjit_prs8bit_generator : New Iteration===========
Instance : 0

Inside foo before eval.....
clk=1
rst=0
out=0

Inside foo after eval.....
clk=1
rst=0
out=0
=============inderjit_d_sine : New Iteration===========
Instance : 0

Inside foo before eval.....
clk=1
dsine=0
data_out=88

Inside foo after eval.....
clk=1
dsine=0
data_out=88
=============inderjit_prs8bit_generator : New Iteration===========
Instance : 0

Inside foo before eval.....
clk=1
rst=0
out=0

Inside foo after eval.....
clk=0
rst=0
out=0
=============inderjit_d_sine : New Iteration===========
Instance : 0

Inside foo before eval.....
clk=1
dsine=0
data_out=88

Inside foo after eval.....
clk=0
dsine=0
data_out=88
=============inderjit_prs8bit_generator : New Iteration===========
Instance : 0

Inside foo before eval.....
clk=0
rst=0
out=0

Inside foo after eval.....
clk=1
rst=0
out=1
=============inderjit_d_sine : New Iteration===========
Instance : 0

Inside foo before eval.....
clk=0
dsine=0
data_out=88

Inside foo after eval.....
clk=1
dsine=0
data_out=89
=============inderjit_d_sine : New Iteration===========
Instance : 0

Inside foo before eval.....
clk=1
dsine=0
data_out=89

Inside foo after eval.....
clk=1
dsine=1
data_out=89
=============inderjit_prs8bit_generator : New Iteration===========
Instance : 0

Inside foo before eval.....
clk=1
rst=0
out=1

Inside foo after eval.....
clk=1
rst=0
out=1
=============inderjit_d_sine : New Iteration===========
Instance : 0

Inside foo before eval.....
clk=1
dsine=1
data_out=89

Inside foo after eval.....
clk=1
dsine=1
data_out=89
=============inderjit_prs8bit_generator : New Iteration===========
Instance : 0

Inside foo before eval.....
clk=1
rst=0
out=1

Inside foo after eval.....
clk=1
rst=0
out=1
=============inderjit_d_sine : New Iteration===========
Instance : 0

Inside foo before eval.....
clk=1
dsine=1
data_out=89

Inside foo after eval.....
clk=1
dsine=1
data_out=89
=============inderjit_prs8bit_generator : New Iteration===========
Instance : 0

Inside foo before eval.....
clk=1
rst=0
out=1

Inside foo after eval.....
clk=0
rst=0
out=1
=============inderjit_d_sine : New Iteration===========
Instance : 0

Inside foo before eval.....
clk=1
dsine=1
data_out=89

Inside foo after eval.....
clk=0
dsine=1
data_out=89
=============inderjit_prs8bit_generator : New Iteration===========
Instance : 0

Inside foo before eval.....
clk=0
rst=0
out=1

Inside foo after eval.....
clk=1
rst=0
out=1
=============inderjit_d_sine : New Iteration===========
Instance : 0

Inside foo before eval.....
clk=0
dsine=1
data_out=89

Inside foo after eval.....
clk=1
dsine=1
data_out=90
=============inderjit_prs8bit_generator : New Iteration===========
Instance : 0

Inside foo before eval.....
clk=1
rst=0
out=1

Inside foo after eval.....
clk=1
rst=0
out=1
=============inderjit_d_sine : New Iteration===========
Instance : 0

Inside foo before eval.....
clk=1
dsine=1
data_out=90

Inside foo after eval.....
clk=1
dsine=1
data_out=90
=============inderjit_prs8bit_generator : New Iteration===========
Instance : 0

Inside foo before eval.....
clk=1
rst=0
out=1

Inside foo after eval.....
clk=1
rst=0
out=1
=============inderjit_d_sine : New Iteration===========
Instance : 0

Inside foo before eval.....
clk=1
dsine=1
data_out=90

Inside foo after eval.....
clk=1
dsine=1
data_out=90
=============inderjit_prs8bit_generator : New Iteration===========
Instance : 0

Inside foo before eval.....
clk=1
rst=0
out=1

Inside foo after eval.....
clk=0
rst=0
out=1
=============inderjit_d_sine : New Iteration===========
Instance : 0

Inside foo before eval.....
clk=1
dsine=1
data_out=90

Inside foo after eval.....
clk=0
dsine=1
data_out=90
=============inderjit_prs8bit_generator : New Iteration===========
Instance : 0

Inside foo before eval.....
clk=0
rst=0
out=1

Inside foo after eval.....
clk=1
rst=0
out=1
=============inderjit_d_sine : New Iteration===========
Instance : 0

Inside foo before eval.....
clk=0
dsine=1
data_out=90

Inside foo after eval.....
clk=1
dsine=1
data_out=91
=============inderjit_prs8bit_generator : New Iteration===========
Instance : 0

Inside foo before eval.....
clk=1
rst=0
out=1

Inside foo after eval.....
clk=1
rst=0
out=1
=============inderjit_d_sine : New Iteration===========
Instance : 0

Inside foo before eval.....
clk=1
dsine=1
data_out=91

Inside foo after eval.....
clk=1
dsine=1
data_out=91
=============inderjit_prs8bit_generator : New Iteration===========
Instance : 0

Inside foo before eval.....
clk=1
rst=0
out=1

Inside foo after eval.....
clk=1
rst=0
out=1
=============inderjit_d_sine : New Iteration===========
Instance : 0

Inside foo before eval.....
clk=1
dsine=1
data_out=91

Inside foo after eval.....
clk=1
dsine=1
data_out=91
=============inderjit_prs8bit_generator : New Iteration===========
Instance : 0

Inside foo before eval.....
clk=1
rst=0
out=1

Inside foo after eval.....
clk=0
rst=0
out=1
=============inderjit_d_sine : New Iteration===========
Instance : 0

Inside foo before eval.....
clk=1
dsine=1
data_out=91

Inside foo after eval.....
clk=0
dsine=1
data_out=91
=============inderjit_prs8bit_generator : New Iteration===========
Instance : 0

Inside foo before eval.....
clk=0
rst=0
out=1

Inside foo after eval.....
clk=1
rst=0
out=0
=============inderjit_d_sine : New Iteration===========
Instance : 0

Inside foo before eval.....
clk=0
dsine=1
data_out=91

Inside foo after eval.....
clk=1
dsine=1
data_out=92
=============inderjit_d_sine : New Iteration===========
Instance : 0

Inside foo before eval.....
clk=1
dsine=1
data_out=92

Inside foo after eval.....
clk=1
dsine=0
data_out=92
=============inderjit_prs8bit_generator : New Iteration===========
Instance : 0

Inside foo before eval.....
clk=1
rst=0
out=0

Inside foo after eval.....
clk=1
rst=0
out=0
=============inderjit_d_sine : New Iteration===========
Instance : 0

Inside foo before eval.....
clk=1
dsine=0
data_out=92

Inside foo after eval.....
clk=1
dsine=0
data_out=92
=============inderjit_prs8bit_generator : New Iteration===========
Instance : 0

Inside foo before eval.....
clk=1
rst=0
out=0

Inside foo after eval.....
clk=1
rst=0
out=0
=============inderjit_d_sine : New Iteration===========
Instance : 0

Inside foo before eval.....
clk=1
dsine=0
data_out=92

Inside foo after eval.....
clk=1
dsine=0
data_out=92
=============inderjit_prs8bit_generator : New Iteration===========
Instance : 0

Inside foo before eval.....
clk=1
rst=0
out=0

Inside foo after eval.....
clk=0
rst=0
out=0
=============inderjit_d_sine : New Iteration===========
Instance : 0

Inside foo before eval.....
clk=1
dsine=0
data_out=92

Inside foo after eval.....
clk=0
dsine=0
data_out=92
=============inderjit_prs8bit_generator : New Iteration===========
Instance : 0

Inside foo before eval.....
clk=0
rst=0
out=0

Inside foo after eval.....
clk=1
rst=0
out=0
=============inderjit_d_sine : New Iteration===========
Instance : 0

Inside foo before eval.....
clk=0
dsine=0
data_out=92

Inside foo after eval.....
clk=1
dsine=0
data_out=93
=============inderjit_prs8bit_generator : New Iteration===========
Instance : 0

Inside foo before eval.....
clk=1
rst=0
out=0

Inside foo after eval.....
clk=1
rst=0
out=0
=============inderjit_d_sine : New Iteration===========
Instance : 0

Inside foo before eval.....
clk=1
dsine=0
data_out=93

Inside foo after eval.....
clk=1
dsine=0
data_out=93
=============inderjit_prs8bit_generator : New Iteration===========
Instance : 0

Inside foo before eval.....
clk=1
rst=0
out=0

Inside foo after eval.....
clk=1
rst=0
out=0
=============inderjit_d_sine : New Iteration===========
Instance : 0

Inside foo before eval.....
clk=1
dsine=0
data_out=93

Inside foo after eval.....
clk=1
dsine=0
data_out=93
=============inderjit_prs8bit_generator : New Iteration===========
Instance : 0

Inside foo before eval.....
clk=1
rst=0
out=0

Inside foo after eval.....
clk=0
rst=0
out=0
=============inderjit_d_sine : New Iteration===========
Instance : 0

Inside foo before eval.....
clk=1
dsine=0
data_out=93

Inside foo after eval.....
clk=0
dsine=0
data_out=93
=============inderjit_prs8bit_generator : New Iteration===========
Instance : 0

Inside foo before eval.....
clk=0
rst=0
out=0

Inside foo after eval.....
clk=1
rst=0
out=1
=============inderjit_d_sine : New Iteration===========
Instance : 0

Inside foo before eval.....
clk=0
dsine=0
data_out=93

Inside foo after eval.....
clk=1
dsine=0
data_out=94
=============inderjit_d_sine : New Iteration===========
Instance : 0

Inside foo before eval.....
clk=1
dsine=0
data_out=94

Inside foo after eval.....
clk=1
dsine=1
data_out=94
=============inderjit_prs8bit_generator : New Iteration===========
Instance : 0

Inside foo before eval.....
clk=1
rst=0
out=1

Inside foo after eval.....
clk=1
rst=0
out=1
=============inderjit_d_sine : New Iteration===========
Instance : 0

Inside foo before eval.....
clk=1
dsine=1
data_out=94

Inside foo after eval.....
clk=1
dsine=1
data_out=94
=============inderjit_prs8bit_generator : New Iteration===========
Instance : 0

Inside foo before eval.....
clk=1
rst=0
out=1

Inside foo after eval.....
clk=1
rst=0
out=1
=============inderjit_d_sine : New Iteration===========
Instance : 0

Inside foo before eval.....
clk=1
dsine=1
data_out=94

Inside foo after eval.....
clk=1
dsine=1
data_out=94
=============inderjit_prs8bit_generator : New Iteration===========
Instance : 0

Inside foo before eval.....
clk=1
rst=0
out=1

Inside foo after eval.....
clk=0
rst=0
out=1
=============inderjit_d_sine : New Iteration===========
Instance : 0

Inside foo before eval.....
clk=1
dsine=1
data_out=94

Inside foo after eval.....
clk=0
dsine=1
data_out=94
=============inderjit_prs8bit_generator : New Iteration===========
Instance : 0

Inside foo before eval.....
clk=0
rst=0
out=1

Inside foo after eval.....
clk=1
rst=0
out=1
=============inderjit_d_sine : New Iteration===========
Instance : 0

Inside foo before eval.....
clk=0
dsine=1
[...]
=============inderjit_d_sine : New Iteration===========
Instance : 1

Inside foo before eval.....
clk=1
dsine=0
data_out=222

Inside foo after eval.....
clk=1
dsine=1
data_out=222
=============inderjit_prs8bit_generator : New Iteration===========
Instance : 1

Inside foo before eval.....
clk=1
rst=0
out=1

Inside foo after eval.....
clk=1
rst=0
out=1
=============inderjit_d_sine : New Iteration===========
Instance : 1

Inside foo before eval.....
clk=1
dsine=1
data_out=222

Inside foo after eval.....
clk=1
dsine=1
data_out=222
=============inderjit_prs8bit_generator : New Iteration===========
Instance : 1

Inside foo before eval.....
clk=1
rst=0
out=1

Inside foo after eval.....
clk=1
rst=0
out=1
=============inderjit_d_sine : New Iteration===========
Instance : 1

Inside foo before eval.....
clk=1
dsine=1
data_out=222

Inside foo after eval.....
clk=1
dsine=1
data_out=222
=============inderjit_prs8bit_generator : New Iteration===========
Instance : 1

Inside foo before eval.....
clk=1
rst=0
out=1

Inside foo after eval.....
clk=0
rst=0
out=1
=============inderjit_d_sine : New Iteration===========
Instance : 1

Inside foo before eval.....
clk=1
dsine=1
data_out=222

Inside foo after eval.....
clk=0
dsine=1
data_out=222
=============inderjit_prs8bit_generator : New Iteration===========
Instance : 1

Inside foo before eval.....
clk=0
rst=0
out=1

Inside foo after eval.....
clk=1
rst=0
out=1
=============inderjit_d_sine : New Iteration===========
Instance : 1

Inside foo before eval.....
clk=0
dsine=1
data_out=222

Inside foo after eval.....
clk=1
dsine=1
data_out=31
=============inderjit_prs8bit_generator : New Iteration===========
Instance : 1

Inside foo before eval.....
clk=1
rst=0
out=1

Inside foo after eval.....
clk=1
rst=0
out=1
=============inderjit_d_sine : New Iteration===========
Instance : 1

Inside foo before eval.....
clk=1
dsine=1
data_out=31

Inside foo after eval.....
clk=1
dsine=1
data_out=31
=============inderjit_prs8bit_generator : New Iteration===========
Instance : 1

Inside foo before eval.....
clk=1
rst=0
out=1

Inside foo after eval.....
clk=1
rst=0
out=1
=============inderjit_d_sine : New Iteration===========
Instance : 1

Inside foo before eval.....
clk=1
dsine=1
data_out=31

Inside foo after eval.....
clk=1
dsine=1
data_out=31
=============inderjit_prs8bit_generator : New Iteration===========
Instance : 1

Inside foo before eval.....
clk=1
rst=0
out=1

Inside foo after eval.....
clk=0
rst=0
out=1
=============inderjit_d_sine : New Iteration===========
Instance : 1

Inside foo before eval.....
clk=1
dsine=1
data_out=31

Inside foo after eval.....
clk=0
dsine=1
data_out=31
=============inderjit_prs8bit_generator : New Iteration===========
Instance : 1

Inside foo before eval.....
clk=0
rst=0
out=1

Inside foo after eval.....
clk=1
rst=0
out=1
=============inderjit_d_sine : New Iteration===========
Instance : 1

Inside foo before eval.....
clk=0
dsine=1
data_out=31

Inside foo after eval.....
clk=1
dsine=1
data_out=227
=============inderjit_prs8bit_generator : New Iteration===========
Instance : 1

Inside foo before eval.....
clk=1
rst=0
out=1

Inside foo after eval.....
clk=1
rst=0
out=1
=============inderjit_d_sine : New Iteration===========
Instance : 1

Inside foo before eval.....
clk=1
dsine=1
data_out=227

Inside foo after eval.....
clk=1
dsine=1
data_out=227
=============inderjit_prs8bit_generator : New Iteration===========
Instance : 1

Inside foo before eval.....
clk=1
rst=0
out=1

Inside foo after eval.....
clk=1
rst=0
out=1
=============inderjit_d_sine : New Iteration===========
Instance : 1

Inside foo before eval.....
clk=1
dsine=1
data_out=227

Inside foo after eval.....
clk=1
dsine=1
data_out=227
=============inderjit_prs8bit_generator : New Iteration===========
Instance : 1

Inside foo before eval.....
clk=1
rst=0
out=1

Inside foo after eval.....
clk=0
rst=0
out=1
=============inderjit_d_sine : New Iteration===========
Instance : 1

Inside foo before eval.....
clk=1
dsine=1
data_out=227

Inside foo after eval.....
clk=0
dsine=1
data_out=227
=============inderjit_prs8bit_generator : New Iteration===========
Instance : 1

Inside foo before eval.....
clk=0
rst=0
out=1

Inside foo after eval.....
clk=1
rst=0
out=0
=============inderjit_d_sine : New Iteration===========
Instance : 1

Inside foo before eval.....
clk=0
dsine=1
data_out=227

Inside foo after eval.....
clk=1
dsine=1
data_out=229
=============inderjit_d_sine : New Iteration===========
Instance : 1

Inside foo before eval.....
clk=1
dsine=1
data_out=229

Inside foo after eval.....
clk=1
dsine=0
data_out=229
=============inderjit_prs8bit_generator : New Iteration===========
Instance : 1

Inside foo before eval.....
clk=1
rst=0
out=0

Inside foo after eval.....
clk=1
rst=0
out=0
=============inderjit_d_sine : New Iteration===========
Instance : 1

Inside foo before eval.....
clk=1
dsine=0
data_out=229

Inside foo after eval.....
clk=1
dsine=0
data_out=229
=============inderjit_prs8bit_generator : New Iteration===========
Instance : 1

Inside foo before eval.....
clk=1
rst=0
out=0

Inside foo after eval.....
clk=1
rst=0
out=0
=============inderjit_d_sine : New Iteration===========
Instance : 1

Inside foo before eval.....
clk=1
dsine=0
data_out=229

Inside foo after eval.....
clk=1
dsine=0
data_out=229
=============inderjit_prs8bit_generator : New Iteration===========
Instance : 1

Inside foo before eval.....
clk=1
rst=0
out=0

Inside foo after eval.....
clk=0
rst=0
out=0
=============inderjit_d_sine : New Iteration===========
Instance : 1

Inside foo before eval.....
clk=1
dsine=0
data_out=229

Inside foo after eval.....
clk=0
dsine=0
data_out=229
=============inderjit_prs8bit_generator : New Iteration===========
Instance : 1

Inside foo before eval.....
clk=0
rst=0
out=0

Inside foo after eval.....
clk=1
rst=0
out=0
=============inderjit_d_sine : New Iteration===========
Instance : 1

Inside foo before eval.....
clk=0
dsine=0
data_out=229

Inside foo after eval.....
clk=1
dsine=0
data_out=232
=============inderjit_prs8bit_generator : New Iteration===========
Instance : 1

Inside foo before eval.....
clk=1
rst=0
out=0

Inside foo after eval.....
clk=1
rst=0
out=0
=============inderjit_d_sine : New Iteration===========
Instance : 1

Inside foo before eval.....
clk=1
dsine=0
data_out=232

Inside foo after eval.....
clk=1
dsine=0
data_out=232
=============inderjit_prs8bit_generator : New Iteration===========
Instance : 1

Inside foo before eval.....
clk=1
rst=0
out=0

Inside foo after eval.....
clk=1
rst=0
out=0
=============inderjit_d_sine : New Iteration===========
Instance : 1

Inside foo before eval.....
clk=1
dsine=0
data_out=232

Inside foo after eval.....
clk=1
dsine=0
data_out=232
=============inderjit_prs8bit_generator : New Iteration===========
Instance : 1

Inside foo before eval.....
clk=1
rst=0
out=0

Inside foo after eval.....
clk=0
rst=0
out=0
=============inderjit_d_sine : New Iteration===========
Instance : 1

Inside foo before eval.....
clk=1
dsine=0
data_out=232

Inside foo after eval.....
clk=0
dsine=0
data_out=232
=============inderjit_prs8bit_generator : New Iteration===========
Instance : 1

Inside foo before eval.....
clk=0
rst=0
out=0

Inside foo after eval.....
clk=1
rst=0
out=1
=============inderjit_d_sine : New Iteration===========
Instance : 1

Inside foo before eval.....
clk=0
dsine=0
data_out=232

Inside foo after eval.....
clk=1
dsine=0
data_out=234
=============inderjit_d_sine : New Iteration===========
Instance : 1

Inside foo before eval.....
clk=1
dsine=0
data_out=234

Inside foo after eval.....
clk=1
dsine=1
data_out=234
=============inderjit_prs8bit_generator : New Iteration===========
Instance : 1

Inside foo before eval.....
clk=1
rst=0
out=1

Inside foo after eval.....
clk=1
rst=0
out=1
=============inderjit_d_sine : New Iteration===========
Instance : 1

Inside foo before eval.....
clk=1
dsine=1
data_out=234

Inside foo after eval.....
clk=1
dsine=1
data_out=234
=============inderjit_prs8bit_generator : New Iteration===========
Instance : 1

Inside foo before eval.....
clk=1
rst=0
out=1

Inside foo after eval.....
clk=1
rst=0
out=1
=============inderjit_d_sine : New Iteration===========
Instance : 1

Inside foo before eval.....
clk=1
dsine=1
data_out=234

Inside foo after eval.....
clk=1
dsine=1
data_out=234
=============inderjit_prs8bit_generator : New Iteration===========
Instance : 1

Inside foo before eval.....
clk=1
rst=0
out=1

Inside foo after eval.....
clk=0
rst=0
out=1
=============inderjit_d_sine : New Iteration===========
Instance : 1

Inside foo before eval.....
clk=1
dsine=1
data_out=234

Inside foo after eval.....
clk=0
dsine=1
data_out=234
=============inderjit_prs8bit_generator : New Iteration===========
Instance : 1

Inside foo before eval.....
clk=0
rst=0
out=1

Inside foo after eval.....
clk=1
rst=0
out=1
=============inderjit_d_sine : New Iteration===========
Instance : 1

Inside foo before eval.....
clk=0
dsine=1
data_out=234

Inside foo after eval.....
clk=1
dsine=1
data_out=237
=============inderjit_prs8bit_generator : New Iteration===========
Instance : 1

Inside foo before eval.....
clk=1
rst=0
out=1

Inside foo after eval.....
clk=1
rst=0
out=1
=============inderjit_d_sine : New Iteration===========
Instance : 1

Inside foo before eval.....
clk=1
dsine=1
data_out=237

Inside foo after eval.....
clk=1
dsine=1
data_out=237
=============inderjit_prs8bit_generator : New Iteration===========
Instance : 1

Inside foo before eval.....
clk=1
rst=0
out=1

Inside foo after eval.....
clk=1
rst=0
out=1
=============inderjit_d_sine : New Iteration===========
Instance : 1

Inside foo before eval.....
clk=1
dsine=1
data_out=237

Inside foo after eval.....
clk=1
dsine=1
data_out=237
=============inderjit_prs8bit_generator : New Iteration===========
Instance : 1

Inside foo before eval.....
clk=1
rst=0
out=1

Inside foo after eval.....
clk=0
rst=0
out=1
=============inderjit_d_sine : New Iteration===========
Instance : 1

Inside foo before eval.....
clk=1
dsine=1
data_out=237

Inside foo after eval.....
clk=0
dsine=1
data_out=237
=============inderjit_prs8bit_generator : New Iteration===========
Instance : 1

Inside foo before eval.....
clk=0
rst=0
out=1

Inside foo after eval.....
clk=1
rst=0
out=1
=============inderjit_d_sine : New Iteration===========
Instance : 1

Inside foo before eval.....
clk=0
dsine=1
data_out=237

Inside foo after eval.....
clk=1
dsine=1
data_out=239
=============inderjit_prs8bit_generator : New Iteration===========
Instance : 1

Inside foo before eval.....
clk=1
rst=0
out=1

Inside foo after eval.....
clk=1
rst=0
out=1
=============inderjit_d_sine : New Iteration===========
Instance : 1

Inside foo before eval.....
clk=1
dsine=1
data_out=239

Inside foo after eval.....
clk=1
dsine=1
data_out=239
=============inderjit_prs8bit_generator : New Iteration===========
Instance : 1

Inside foo before eval.....
clk=1
rst=0
out=1

Inside foo after eval.....
clk=1
rst=0
out=1
=============inderjit_d_sine : New Iteration===========
Instance : 1

Inside foo before eval.....
clk=1
dsine=1
data_out=239

Inside foo after eval.....
clk=1
dsine=1
data_out=239
=============inderjit_prs8bit_generator : New Iteration===========
Instance : 1

Inside foo before eval.....
clk=1
rst=0
out=1

Inside foo after eval.....
clk=0
rst=0
out=1
=============inderjit_d_sine : New Iteration===========
Instance : 1

Inside foo before eval.....
clk=1
dsine=1
data_out=239

Inside foo after eval.....
clk=0
dsine=1
data_out=239
=============inderjit_prs8bit_generator : New Iteration===========
Instance : 1

Inside foo before eval.....
clk=0
rst=0
out=1

Inside foo after eval.....
clk=1
rst=0
out=1
=============inderjit_d_sine : New Iteration===========
Instance : 1

Inside foo before eval.....
clk=0
dsine=1
data_out=239

Inside foo after eval.....
clk=1
dsine=1
data_out=241
=============inderjit_prs8bit_generator : New Iteration===========
Instance : 1

Inside foo before eval.....
clk=1
rst=0
out=1

Inside foo after eval.....
clk=1
rst=0
out=1
=============inderjit_d_sine : New Iteration===========
Instance : 1

Inside foo before eval.....
clk=1
dsine=1
data_out=241

Inside foo after eval.....
clk=1
dsine=1
data_out=241
=============inderjit_prs8bit_generator : New Iteration===========
Instance : 1

Inside foo before eval.....
clk=1
rst=0
out=1

Inside foo after eval.....
clk=1
rst=0
out=1
=============inderjit_d_sine : New Iteration===========
Instance : 1

Inside foo before eval.....
clk=1
dsine=1
data_out=241

Inside foo after eval.....
clk=1
dsine=1
data_out=241
=============inderjit_prs8bit_generator : New Iteration===========
Instance : 1

Inside foo before eval.....
clk=1
rst=0
out=1

Inside foo after eval.....
clk=0
rst=0
out=1
=============inderjit_d_sine : New Iteration===========
Instance : 1

Inside foo before eval.....
clk=1
dsine=1
data_out=241

Inside foo after eval.....
clk=0
dsine=1
data_out=241
=============inderjit_prs8bit_generator : New Iteration===========
Instance : 1

Inside foo before eval.....
clk=0
rst=0
out=1

Inside foo after eval.....
clk=1
rst=0
out=1
=============inderjit_d_sine : New Iteration===========
Instance : 1

Inside foo before eval.....
clk=0
dsine=1
data_out=241

Inside foo after eval.....
clk=1
dsine=1
data_out=244
=============inderjit_prs8bit_generator : New Iteration===========
Instance : 1

Inside foo before eval.....
clk=1
rst=0
out=1

Inside foo after eval.....
clk=1
rst=0
out=1
=============inderjit_d_sine : New Iteration===========
Instance : 1

Inside foo before eval.....
clk=1
dsine=1
data_out=244

Inside foo after eval.....
clk=1
dsine=1
data_out=244
=============inderjit_prs8bit_generator : New Iteration===========
Instance : 1

Inside foo before eval.....
clk=1
rst=0
out=1

Inside foo after eval.....
clk=1
rst=0
out=1
=============inderjit_d_sine : New Iteration===========
Instance : 1

Inside foo before eval.....
clk=1
dsine=1
data_out=244

Inside foo after eval.....
clk=1
dsine=1
data_out=244
=============inderjit_prs8bit_generator : New Iteration===========
Instance : 1

Inside foo before eval.....
clk=1
rst=0
out=1

Inside foo after eval.....
clk=0
rst=0
out=1
=============inderjit_d_sine : New Iteration===========
Instance : 1

Inside foo before eval.....
clk=1
dsine=1
data_out=244

Inside foo after eval.....
clk=0
dsine=1
data_out=244
=============inderjit_prs8bit_generator : New Iteration===========
Instance : 1

Inside foo before eval.....
clk=0
rst=0
out=1

Inside foo after eval.....
clk=1
rst=0
out=0
=============inderjit_d_sine : New Iteration===========
Instance : 1

Inside foo before eval.....
clk=0
dsine=1
data_out=244

Inside foo after eval.....
clk=1
dsine=1
data_out=246
=============inderjit_d_sine : New Iteration===========
Instance : 1

Inside foo before eval.....
clk=1
dsine=1
data_out=246

Inside foo after eval.....
clk=1
dsine=0
data_out=246
=============inderjit_prs8bit_generator : New Iteration===========
Instance : 1

Inside foo before eval.....
clk=1
rst=0
out=0

Inside foo after eval.....
clk=1
rst=0
out=0
=============inderjit_d_sine : New Iteration===========
Instance : 1

Inside foo before eval.....
clk=1
dsine=0
data_out=246

Inside foo after eval.....
clk=1
dsine=0
data_out=246
=============inderjit_prs8bit_generator : New Iteration===========
Instance : 1

Inside foo before eval.....
clk=1
rst=0
out=0

Inside foo after eval.....
clk=1
rst=0
out=0
=============inderjit_d_sine : New Iteration===========
Instance : 1

Inside foo before eval.....
clk=1
dsine=0
data_out=246

Inside foo after eval.....
clk=1
dsine=0
data_out=246
=============inderjit_prs8bit_generator : New Iteration===========
Instance : 1

Inside foo before eval.....
clk=1
rst=0
out=0

Inside foo after eval.....
clk=0
rst=0
out=0
=============inderjit_d_sine : New Iteration===========
Instance : 1

Inside foo before eval.....
clk=1
dsine=0
data_out=246

Inside foo after eval.....
clk=0
dsine=0
data_out=246
=============inderjit_prs8bit_generator : New Iteration===========
Instance : 1

Inside foo before eval.....
clk=0
rst=0
out=0

Inside foo after eval.....
clk=1
rst=0
out=0
=============inderjit_d_sine : New Iteration===========
Instance : 1

Inside foo before eval.....
clk=0
dsine=0
data_out=246

Inside foo after eval.....
clk=1
dsine=0
data_out=249
=============inderjit_prs8bit_generator : New Iteration===========
Instance : 1

Inside foo before eval.....
clk=1
rst=0
out=0

Inside foo after eval.....
clk=1
rst=0
out=0
=============inderjit_d_sine : New Iteration===========
Instance : 1

Inside foo before eval.....
clk=1
dsine=0
data_out=249

Inside foo after eval.....
clk=1
dsine=0
data_out=249
=============inderjit_prs8bit_generator : New Iteration===========
Instance : 1

Inside foo before eval.....
clk=1
rst=0
out=0

Inside foo after eval.....
clk=1
rst=0
out=0
=============inderjit_d_sine : New Iteration===========
Instance : 1

Inside foo before eval.....
clk=1
dsine=0
data_out=249

Inside foo after eval.....
clk=1
dsine=0
data_out=249
=============inderjit_prs8bit_generator : New Iteration===========
Instance : 1

Inside foo before eval.....
clk=1
rst=0
out=0

Inside foo after eval.....
clk=0
rst=0
out=0
=============inderjit_d_sine : New Iteration===========
Instance : 1

Inside foo before eval.....
clk=1
dsine=0
data_out=249

Inside foo after eval.....
clk=0
dsine=0
data_out=249
=============inderjit_prs8bit_generator : New Iteration===========
Instance : 1

Inside foo before eval.....
clk=0
rst=0
out=0

Inside foo after eval.....
clk=1
rst=0
out=0
=============inderjit_d_sine : New Iteration===========
Instance : 1

Inside foo before eval.....
clk=0
dsine=0
data_out=249

Inside foo after eval.....
clk=1
dsine=0
data_out=251
=============inderjit_prs8bit_generator : New Iteration===========
Instance : 1

Inside foo before eval.....
clk=1
rst=0
out=0

Inside foo after eval.....
clk=1
rst=0
out=0
=============inderjit_d_sine : New Iteration===========
Instance : 1

Inside foo before eval.....
clk=1
dsine=0
data_out=251

Inside foo after eval.....
clk=1
dsine=0
data_out=251
=============inderjit_prs8bit_generator : New Iteration===========
Instance : 1

Inside foo before eval.....
clk=1
rst=0
out=0

Inside foo after eval.....
clk=1
rst=0
out=0
=============inderjit_d_sine : New Iteration===========
Instance : 1

Inside foo before eval.....
clk=1
dsine=0
data_out=251

Inside foo after eval.....
clk=1
dsine=0
data_out=251
=============inderjit_prs8bit_generator : New Iteration===========
Instance : 1

Inside foo before eval.....
clk=1
rst=0
out=0

Inside foo after eval.....
clk=0
rst=0
out=0
=============inderjit_d_sine : New Iteration===========
Instance : 1

Inside foo before eval.....
clk=1
dsine=0
data_out=251

Inside foo after eval.....
clk=0
dsine=0
data_out=251
=============inderjit_prs8bit_generator : New Iteration===========
Instance : 1

Inside foo before eval.....
clk=0
rst=0
out=0

Inside foo after eval.....
clk=1
rst=0
out=1
=============inderjit_d_sine : New Iteration===========
Instance : 1

Inside foo before eval.....
clk=0
dsine=0
data_out=251

Inside foo after eval.....
clk=1
dsine=0
data_out=254
=============inderjit_d_sine : New Iteration===========
Instance : 1

Inside foo before eval.....
clk=1
dsine=0
data_out=254

Inside foo after eval.....
clk=1
dsine=1
data_out=254
=============inderjit_prs8bit_generator : New Iteration===========
Instance : 1

Inside foo before eval.....
clk=1
rst=0
out=1

Inside foo after eval.....
clk=1
rst=0
out=1
=============inderjit_d_sine : New Iteration===========
Instance : 1

Inside foo before eval.....
clk=1
dsine=1
data_out=254

Inside foo after eval.....
clk=1
dsine=1
data_out=254

No. of Data Rows : 34186

Total analysis time (seconds) = 2.56848

Total CPU time (seconds) = 5.273 

Total DRAM available = 257855.305 MB.
DRAM currently available = 222076.316 MB.
Maximum ngspice program size =  122.855 MB.
Current ngspice program size =   45.281 MB.

Shared ngspice pages =    9.574 MB.
Text (code) pages =    6.285 MB.
Stack = 0 bytes.
Library pages =   36.359 MB.

