
No compatibility mode selected!


Circuit: * /home/inderjitsingh/esim_mixed_signal_marathon_2022/counter_4bit/counter_4bit.cir

Reducing trtol to 1 for xspice 'A' devices
Doing analysis at TEMP = 27.000000 and TNOM = 27.000000

Warning: v2: no DC value, transient time 0 value used
Warning: v1: no DC value, transient time 0 value used
=============inderjit_4bitcounter : New Iteration===========
Instance : 0

Inside foo before eval.....
clk=0
rst=0
out=0

Inside foo after eval.....
clk=0
rst=0
out=0
=============inderjit_4bitcounter : New Iteration===========
Instance : 0

Inside foo before eval.....
clk=0
rst=0
out=0

Inside foo after eval.....
clk=0
rst=0
out=0

Initial Transient Solution
--------------------------

Node                                   Voltage
----                                   -------
net-_r1-pad1_                                0
reset                                        0
clk                                          0
net-_r3-pad1_                                0
o3                                           0
o2                                           0
o1                                           0
o0                                           0
v2#branch                                    0
v1#branch                                    0
a3#branch_1_0                                0
a3#branch_1_1                                0
a3#branch_1_2                                0
a3#branch_1_3                                0

=============inderjit_4bitcounter : New Iteration===========
Instance : 0

Inside foo before eval.....
clk=0
rst=0
out=0

Inside foo after eval.....
clk=1
rst=1
out=0
=============inderjit_4bitcounter : New Iteration===========
Instance : 0

Inside foo before eval.....
clk=1
rst=1
out=0

Inside foo after eval.....
clk=1
rst=1
out=0
=============inderjit_4bitcounter : New Iteration===========
Instance : 0

Inside foo before eval.....
clk=1
rst=1
out=0

Inside foo after eval.....
clk=1
rst=1
out=0
=============inderjit_4bitcounter : New Iteration===========
Instance : 0

Inside foo before eval.....
clk=1
rst=1
out=0

Inside foo after eval.....
clk=0
rst=1
out=0
=============inderjit_4bitcounter : New Iteration===========
Instance : 0

Inside foo before eval.....
clk=0
rst=1
out=0

Inside foo after eval.....
clk=0
rst=0
out=0
=============inderjit_4bitcounter : New Iteration===========
Instance : 0

Inside foo before eval.....
clk=0
rst=0
out=0

Inside foo after eval.....
clk=1
rst=0
out=1
=============inderjit_4bitcounter : New Iteration===========
Instance : 0

Inside foo before eval.....
clk=1
rst=0
out=1

Inside foo after eval.....
clk=1
rst=0
out=1
=============inderjit_4bitcounter : New Iteration===========
Instance : 0

Inside foo before eval.....
clk=1
rst=0
out=1

Inside foo after eval.....
clk=1
rst=0
out=1
=============inderjit_4bitcounter : New Iteration===========
Instance : 0

Inside foo before eval.....
clk=1
rst=0
out=1

Inside foo after eval.....
clk=0
rst=0
out=1
=============inderjit_4bitcounter : New Iteration===========
Instance : 0

Inside foo before eval.....
clk=0
rst=0
out=1

Inside foo after eval.....
clk=1
rst=0
out=2
=============inderjit_4bitcounter : New Iteration===========
Instance : 0

Inside foo before eval.....
clk=1
rst=0
out=2

Inside foo after eval.....
clk=1
rst=0
out=2
=============inderjit_4bitcounter : New Iteration===========
Instance : 0

Inside foo before eval.....
clk=1
rst=0
out=2

Inside foo after eval.....
clk=1
rst=0
out=2
=============inderjit_4bitcounter : New Iteration===========
Instance : 0

Inside foo before eval.....
clk=1
rst=0
out=2

Inside foo after eval.....
clk=0
rst=0
out=2
=============inderjit_4bitcounter : New Iteration===========
Instance : 0

Inside foo before eval.....
clk=0
rst=0
out=2

Inside foo after eval.....
clk=1
rst=0
out=3
=============inderjit_4bitcounter : New Iteration===========
Instance : 0

Inside foo before eval.....
clk=1
rst=0
out=3

Inside foo after eval.....
clk=1
rst=0
out=3
=============inderjit_4bitcounter : New Iteration===========
Instance : 0

Inside foo before eval.....
clk=1
rst=0
out=3

Inside foo after eval.....
clk=1
rst=0
out=3
=============inderjit_4bitcounter : New Iteration===========
Instance : 0

Inside foo before eval.....
clk=1
rst=0
out=3

Inside foo after eval.....
clk=0
rst=0
out=3
=============inderjit_4bitcounter : New Iteration===========
Instance : 0

Inside foo before eval.....
clk=0
rst=0
out=3

Inside foo after eval.....
clk=1
rst=0
out=4
=============inderjit_4bitcounter : New Iteration===========
Instance : 0

Inside foo before eval.....
clk=1
rst=0
out=4

Inside foo after eval.....
clk=1
rst=0
out=4
=============inderjit_4bitcounter : New Iteration===========
Instance : 0

Inside foo before eval.....
clk=1
rst=0
out=4

Inside foo after eval.....
clk=1
rst=0
out=4
=============inderjit_4bitcounter : New Iteration===========
Instance : 0

Inside foo before eval.....
clk=1
rst=0
out=4

Inside foo after eval.....
clk=0
rst=0
out=4
=============inderjit_4bitcounter : New Iteration===========
Instance : 0

Inside foo before eval.....
clk=0
rst=0
out=4

Inside foo after eval.....
clk=1
rst=0
out=5
=============inderjit_4bitcounter : New Iteration===========
Instance : 0

Inside foo before eval.....
clk=1
rst=0
out=5

Inside foo after eval.....
clk=1
rst=0
out=5
=============inderjit_4bitcounter : New Iteration===========
Instance : 0

Inside foo before eval.....
clk=1
rst=0
out=5

Inside foo after eval.....
clk=1
rst=0
out=5
=============inderjit_4bitcounter : New Iteration===========
Instance : 0

Inside foo before eval.....
clk=1
rst=0
out=5

Inside foo after eval.....
clk=0
rst=0
out=5
=============inderjit_4bitcounter : New Iteration===========
Instance : 0

Inside foo before eval.....
clk=0
rst=0
out=5

Inside foo after eval.....
clk=1
rst=0
out=6
=============inderjit_4bitcounter : New Iteration===========
Instance : 0

Inside foo before eval.....
clk=1
rst=0
out=6

Inside foo after eval.....
clk=1
rst=0
out=6
=============inderjit_4bitcounter : New Iteration===========
Instance : 0

Inside foo before eval.....
clk=1
rst=0
out=6

Inside foo after eval.....
clk=1
rst=0
out=6
=============inderjit_4bitcounter : New Iteration===========
Instance : 0

Inside foo before eval.....
clk=1
rst=0
out=6

Inside foo after eval.....
clk=0
rst=0
out=6
=============inderjit_4bitcounter : New Iteration===========
Instance : 0

Inside foo before eval.....
clk=0
rst=0
out=6

Inside foo after eval.....
clk=1
rst=0
out=7
=============inderjit_4bitcounter : New Iteration===========
Instance : 0

Inside foo before eval.....
clk=1
rst=0
out=7

Inside foo after eval.....
clk=1
rst=0
out=7
=============inderjit_4bitcounter : New Iteration===========
Instance : 0

Inside foo before eval.....
clk=1
rst=0
out=7

Inside foo after eval.....
clk=1
rst=0
out=7
=============inderjit_4bitcounter : New Iteration===========
Instance : 0

Inside foo before eval.....
clk=1
rst=0
out=7

Inside foo after eval.....
clk=0
rst=0
out=7
=============inderjit_4bitcounter : New Iteration===========
Instance : 0

Inside foo before eval.....
clk=0
rst=0
out=7

Inside foo after eval.....
clk=1
rst=0
out=8
=============inderjit_4bitcounter : New Iteration===========
Instance : 0

Inside foo before eval.....
clk=1
rst=0
out=8

Inside foo after eval.....
clk=1
rst=0
out=8
=============inderjit_4bitcounter : New Iteration===========
Instance : 0

Inside foo before eval.....
clk=1
rst=0
out=8

Inside foo after eval.....
clk=1
rst=0
out=8
=============inderjit_4bitcounter : New Iteration===========
Instance : 0

Inside foo before eval.....
clk=1
rst=0
out=8

Inside foo after eval.....
clk=0
rst=0
out=8
=============inderjit_4bitcounter : New Iteration===========
Instance : 0

Inside foo before eval.....
clk=0
rst=0
out=8

Inside foo after eval.....
clk=1
rst=0
out=9
=============inderjit_4bitcounter : New Iteration===========
Instance : 0

Inside foo before eval.....
clk=1
rst=0
out=9

Inside foo after eval.....
clk=1
rst=0
out=9
=============inderjit_4bitcounter : New Iteration===========
Instance : 0

Inside foo before eval.....
clk=1
rst=0
out=9

Inside foo after eval.....
clk=1
rst=0
out=9
=============inderjit_4bitcounter : New Iteration===========
Instance : 0

Inside foo before eval.....
clk=1
rst=0
out=9

Inside foo after eval.....
clk=0
rst=0
out=9

No. of Data Rows : 787
ERROR: (internal)  This operation is not defined for display type PrinterOnly.
Can't open viewport for graphics.
binary raw file "/home/inderjitsingh/eSim_Mixed_signal_marathon_2022/counter_4bit/counter_4bit.raw"
Reducing trtol to 1 for xspice 'A' devices
Doing analysis at TEMP = 27.000000 and TNOM = 27.000000

Warning: v2: no DC value, transient time 0 value used
Warning: v1: no DC value, transient time 0 value used
No. of Data Columns : 15     
=============inderjit_4bitcounter : New Iteration===========
Instance : 1

Inside foo before eval.....
clk=0
rst=0
out=0

Inside foo after eval.....
clk=0
rst=0
out=0
=============inderjit_4bitcounter : New Iteration===========
Instance : 1

Inside foo before eval.....
clk=0
rst=0
out=0

Inside foo after eval.....
clk=0
rst=0
out=0

Initial Transient Solution
--------------------------

Node                                   Voltage
----                                   -------
net-_r1-pad1_                                0
reset                                        0
clk                                          0
net-_r3-pad1_                                0
o3                                           0
o2                                           0
o1                                           0
o0                                           0
v2#branch                                    0
v1#branch                                    0
a3#branch_1_0                                0
a3#branch_1_1                                0
a3#branch_1_2                                0
a3#branch_1_3                                0

=============inderjit_4bitcounter : New Iteration===========
Instance : 1

Inside foo before eval.....
clk=0
rst=0
out=0

Inside foo after eval.....
clk=1
rst=1
out=0
=============inderjit_4bitcounter : New Iteration===========
Instance : 1

Inside foo before eval.....
clk=1
rst=1
out=0

Inside foo after eval.....
clk=1
rst=1
out=0
=============inderjit_4bitcounter : New Iteration===========
Instance : 1

Inside foo before eval.....
clk=1
rst=1
out=0

Inside foo after eval.....
clk=1
rst=1
out=0
=============inderjit_4bitcounter : New Iteration===========
Instance : 1

Inside foo before eval.....
clk=1
rst=1
out=0

Inside foo after eval.....
clk=0
rst=1
out=0
=============inderjit_4bitcounter : New Iteration===========
Instance : 1

Inside foo before eval.....
clk=0
rst=1
out=0

Inside foo after eval.....
clk=0
rst=0
out=0
=============inderjit_4bitcounter : New Iteration===========
Instance : 1

Inside foo before eval.....
clk=0
rst=0
out=0

Inside foo after eval.....
clk=1
rst=0
out=1
=============inderjit_4bitcounter : New Iteration===========
Instance : 1

Inside foo before eval.....
clk=1
rst=0
out=1

Inside foo after eval.....
clk=1
rst=0
out=1
=============inderjit_4bitcounter : New Iteration===========
Instance : 1

Inside foo before eval.....
clk=1
rst=0
out=1

Inside foo after eval.....
clk=1
rst=0
out=1
=============inderjit_4bitcounter : New Iteration===========
Instance : 1

Inside foo before eval.....
clk=1
rst=0
out=1

Inside foo after eval.....
clk=0
rst=0
out=1
=============inderjit_4bitcounter : New Iteration===========
Instance : 1

Inside foo before eval.....
clk=0
rst=0
out=1

Inside foo after eval.....
clk=1
rst=0
out=2
=============inderjit_4bitcounter : New Iteration===========
Instance : 1

Inside foo before eval.....
clk=1
rst=0
out=2

Inside foo after eval.....
clk=1
rst=0
out=2
=============inderjit_4bitcounter : New Iteration===========
Instance : 1

Inside foo before eval.....
clk=1
rst=0
out=2

Inside foo after eval.....
clk=1
rst=0
out=2
=============inderjit_4bitcounter : New Iteration===========
Instance : 1

Inside foo before eval.....
clk=1
rst=0
out=2

Inside foo after eval.....
clk=0
rst=0
out=2
=============inderjit_4bitcounter : New Iteration===========
Instance : 1

Inside foo before eval.....
clk=0
rst=0
out=2

Inside foo after eval.....
clk=1
rst=0
out=3
=============inderjit_4bitcounter : New Iteration===========
Instance : 1

Inside foo before eval.....
clk=1
rst=0
out=3

Inside foo after eval.....
clk=1
rst=0
out=3
=============inderjit_4bitcounter : New Iteration===========
Instance : 1

Inside foo before eval.....
clk=1
rst=0
out=3

Inside foo after eval.....
clk=1
rst=0
out=3
=============inderjit_4bitcounter : New Iteration===========
Instance : 1

Inside foo before eval.....
clk=1
rst=0
out=3

Inside foo after eval.....
clk=0
rst=0
out=3
=============inderjit_4bitcounter : New Iteration===========
Instance : 1

Inside foo before eval.....
clk=0
rst=0
out=3

Inside foo after eval.....
clk=1
rst=0
out=4
=============inderjit_4bitcounter : New Iteration===========
Instance : 1

Inside foo before eval.....
clk=1
rst=0
out=4

Inside foo after eval.....
clk=1
rst=0
out=4
=============inderjit_4bitcounter : New Iteration===========
Instance : 1

Inside foo before eval.....
clk=1
rst=0
out=4

Inside foo after eval.....
clk=1
rst=0
out=4
=============inderjit_4bitcounter : New Iteration===========
Instance : 1

Inside foo before eval.....
clk=1
rst=0
out=4

Inside foo after eval.....
clk=0
rst=0
out=4
=============inderjit_4bitcounter : New Iteration===========
Instance : 1

Inside foo before eval.....
clk=0
rst=0
out=4

Inside foo after eval.....
clk=1
rst=0
out=5
=============inderjit_4bitcounter : New Iteration===========
Instance : 1

Inside foo before eval.....
clk=1
rst=0
out=5

Inside foo after eval.....
clk=1
rst=0
out=5
=============inderjit_4bitcounter : New Iteration===========
Instance : 1

Inside foo before eval.....
clk=1
rst=0
out=5

Inside foo after eval.....
clk=1
rst=0
out=5
=============inderjit_4bitcounter : New Iteration===========
Instance : 1

Inside foo before eval.....
clk=1
rst=0
out=5

Inside foo after eval.....
clk=0
rst=0
out=5
=============inderjit_4bitcounter : New Iteration===========
Instance : 1

Inside foo before eval.....
clk=0
rst=0
out=5

Inside foo after eval.....
clk=1
rst=0
out=6
=============inderjit_4bitcounter : New Iteration===========
Instance : 1

Inside foo before eval.....
clk=1
rst=0
out=6

Inside foo after eval.....
clk=1
rst=0
out=6
=============inderjit_4bitcounter : New Iteration===========
Instance : 1

Inside foo before eval.....
clk=1
rst=0
out=6

Inside foo after eval.....
clk=1
rst=0
out=6
=============inderjit_4bitcounter : New Iteration===========
Instance : 1

Inside foo before eval.....
clk=1
rst=0
out=6

Inside foo after eval.....
clk=0
rst=0
out=6
=============inderjit_4bitcounter : New Iteration===========
Instance : 1

Inside foo before eval.....
clk=0
rst=0
out=6

Inside foo after eval.....
clk=1
rst=0
out=7
=============inderjit_4bitcounter : New Iteration===========
Instance : 1

Inside foo before eval.....
clk=1
rst=0
out=7

Inside foo after eval.....
clk=1
rst=0
out=7
=============inderjit_4bitcounter : New Iteration===========
Instance : 1

Inside foo before eval.....
clk=1
rst=0
out=7

Inside foo after eval.....
clk=1
rst=0
out=7
=============inderjit_4bitcounter : New Iteration===========
Instance : 1

Inside foo before eval.....
clk=1
rst=0
out=7

Inside foo after eval.....
clk=0
rst=0
out=7
=============inderjit_4bitcounter : New Iteration===========
Instance : 1

Inside foo before eval.....
clk=0
rst=0
out=7

Inside foo after eval.....
clk=1
rst=0
out=8
=============inderjit_4bitcounter : New Iteration===========
Instance : 1

Inside foo before eval.....
clk=1
rst=0
out=8

Inside foo after eval.....
clk=1
rst=0
out=8
=============inderjit_4bitcounter : New Iteration===========
Instance : 1

Inside foo before eval.....
clk=1
rst=0
out=8

Inside foo after eval.....
clk=1
rst=0
out=8
=============inderjit_4bitcounter : New Iteration===========
Instance : 1

Inside foo before eval.....
clk=1
rst=0
out=8

Inside foo after eval.....
clk=0
rst=0
out=8
=============inderjit_4bitcounter : New Iteration===========
Instance : 1

Inside foo before eval.....
clk=0
rst=0
out=8

Inside foo after eval.....
clk=1
rst=0
out=9
=============inderjit_4bitcounter : New Iteration===========
Instance : 1

Inside foo before eval.....
clk=1
rst=0
out=9

Inside foo after eval.....
clk=1
rst=0
out=9
=============inderjit_4bitcounter : New Iteration===========
Instance : 1

Inside foo before eval.....
clk=1
rst=0
out=9

Inside foo after eval.....
clk=1
rst=0
out=9
=============inderjit_4bitcounter : New Iteration===========
Instance : 1

Inside foo before eval.....
clk=1
rst=0
out=9

Inside foo after eval.....
clk=0
rst=0
out=9

No. of Data Rows : 787

Total analysis time (seconds) = 0.025789

Total CPU time (seconds) = 0.061 

Total DRAM available = 257855.305 MB.
DRAM currently available = 239316.992 MB.
Maximum ngspice program size =   88.891 MB.
Current ngspice program size =   11.418 MB.

Shared ngspice pages =    9.496 MB.
Text (code) pages =    6.285 MB.
Stack = 0 bytes.
Library pages =    2.500 MB.

